{
  "completed_at": "20200630T212937Z",
  "completed_status": "Success",
  "created_at": "2020-06-30 21:24:45 +0000",
  "current_step": 15,
  "description": "",
  "eplusout_err": "Program Version,EnergyPlus, Version 9.2.0-921312fa1d, YMD=2020.06.30 21:25,\n   ************* Beginning Zone Sizing Calculations\n   ** Warning ** ProcessScheduleInput: Schedule:Day:Interval=\"SCHEDULE DAY 2\", Blank Schedule Type Limits Name input -- will not be validated.\n   ** Warning ** ProcessScheduleInput: Schedule:Day:Interval=\"SCHEDULE DAY 3\", Blank Schedule Type Limits Name input -- will not be validated.\n   ** Warning ** ProcessScheduleInput: Schedule:Day:Interval=\"ZONE CORE SPACE - STORY GROUND PSZ-AC OCC SCH DEFAULT\", Blank Schedule Type Limits Name input -- will not be validated.\n   ** Warning ** ProcessScheduleInput: Schedule:Day:Interval=\"ZONE CORE SPACE - STORY GROUND PSZ-AC OCC SCH SATURDAY\", Blank Schedule Type Limits Name input -- will not be validated.\n   ** Warning ** ProcessScheduleInput: Schedule:Day:Interval=\"ZONE CORE SPACE - STORY GROUND PSZ-AC OCC SCH SUMMER DESIGN DAY\", Blank Schedule Type Limits Name input -- will not be validated.\n   ** Warning ** ProcessScheduleInput: Schedule:Day:Interval=\"ZONE CORE SPACE - STORY GROUND PSZ-AC OCC SCH SUNDAY\", Blank Schedule Type Limits Name input -- will not be validated.\n   ** Warning ** ProcessScheduleInput: Schedule:Day:Interval=\"ZONE CORE SPACE - STORY GROUND PSZ-AC OCC SCH WINTER DESIGN DAY\", Blank Schedule Type Limits Name input -- will not be validated.\n   ** Warning ** ProcessScheduleInput: Schedule:Day:Interval=\"ZONE CORE SPACE - STORY MID PSZ-AC OCC SCH DEFAULT\", Blank Schedule Type Limits Name input -- will not be validated.\n   ** Warning ** ProcessScheduleInput: Schedule:Day:Interval=\"ZONE CORE SPACE - STORY MID PSZ-AC OCC SCH SATURDAY\", Blank Schedule Type Limits Name input -- will not be validated.\n   ** Warning ** ProcessScheduleInput: Schedule:Day:Interval=\"ZONE CORE SPACE - STORY MID PSZ-AC OCC SCH SUMMER DESIGN DAY\", Blank Schedule Type Limits Name input -- will not be validated.\n   ** Warning ** ProcessScheduleInput: Schedule:Day:Interval=\"ZONE CORE SPACE - STORY MID PSZ-AC OCC SCH SUNDAY\", Blank Schedule Type Limits Name input -- will not be validated.\n   ** Warning ** ProcessScheduleInput: Schedule:Day:Interval=\"ZONE CORE SPACE - STORY MID PSZ-AC OCC SCH WINTER DESIGN DAY\", Blank Schedule Type Limits Name input -- will not be validated.\n   ** Warning ** ProcessScheduleInput: Schedule:Day:Interval=\"ZONE CORE SPACE - STORY TOP PSZ-AC OCC SCH DEFAULT\", Blank Schedule Type Limits Name input -- will not be validated.\n   ** Warning ** ProcessScheduleInput: Schedule:Day:Interval=\"ZONE CORE SPACE - STORY TOP PSZ-AC OCC SCH SATURDAY\", Blank Schedule Type Limits Name input -- will not be validated.\n   ** Warning ** ProcessScheduleInput: Schedule:Day:Interval=\"ZONE CORE SPACE - STORY TOP PSZ-AC OCC SCH SUMMER DESIGN DAY\", Blank Schedule Type Limits Name input -- will not be validated.\n   ** Warning ** ProcessScheduleInput: Schedule:Day:Interval=\"ZONE CORE SPACE - STORY TOP PSZ-AC OCC SCH SUNDAY\", Blank Schedule Type Limits Name input -- will not be validated.\n   ** Warning ** ProcessScheduleInput: Schedule:Day:Interval=\"ZONE CORE SPACE - STORY TOP PSZ-AC OCC SCH WINTER DESIGN DAY\", Blank Schedule Type Limits Name input -- will not be validated.\n   ** Warning ** ProcessScheduleInput: Schedule:Day:Interval=\"ZONE EAST PERIMETER SPACE - STORY GROUND PSZ-AC OCC SCH DEFAULT\", Blank Schedule Type Limits Name input -- will not be validated.\n   ** Warning ** ProcessScheduleInput: Schedule:Day:Interval=\"ZONE EAST PERIMETER SPACE - STORY GROUND PSZ-AC OCC SCH SATURDAY\", Blank Schedule Type Limits Name input -- will not be validated.\n   ** Warning ** ProcessScheduleInput: Schedule:Day:Interval=\"ZONE EAST PERIMETER SPACE - STORY GROUND PSZ-AC OCC SCH SUMMER DESIGN DAY\", Blank Schedule Type Limits Name input -- will not be validated.\n   ** Warning ** ProcessScheduleInput: Schedule:Day:Interval=\"ZONE EAST PERIMETER SPACE - STORY GROUND PSZ-AC OCC SCH SUNDAY\", Blank Schedule Type Limits Name input -- will not be validated.\n   ** Warning ** ProcessScheduleInput: Schedule:Day:Interval=\"ZONE EAST PERIMETER SPACE - STORY GROUND PSZ-AC OCC SCH WINTER DESIGN DAY\", Blank Schedule Type Limits Name input -- will not be validated.\n   ** Warning ** ProcessScheduleInput: Schedule:Day:Interval=\"ZONE EAST PERIMETER SPACE - STORY MID PSZ-AC OCC SCH DEFAULT\", Blank Schedule Type Limits Name input -- will not be validated.\n   ** Warning ** ProcessScheduleInput: Schedule:Day:Interval=\"ZONE EAST PERIMETER SPACE - STORY MID PSZ-AC OCC SCH SATURDAY\", Blank Schedule Type Limits Name input -- will not be validated.\n   ** Warning ** ProcessScheduleInput: Schedule:Day:Interval=\"ZONE EAST PERIMETER SPACE - STORY MID PSZ-AC OCC SCH SUMMER DESIGN DAY\", Blank Schedule Type Limits Name input -- will not be validated.\n   ** Warning ** ProcessScheduleInput: Schedule:Day:Interval=\"ZONE EAST PERIMETER SPACE - STORY MID PSZ-AC OCC SCH SUNDAY\", Blank Schedule Type Limits Name input -- will not be validated.\n   ** Warning ** ProcessScheduleInput: Schedule:Day:Interval=\"ZONE EAST PERIMETER SPACE - STORY MID PSZ-AC OCC SCH WINTER DESIGN DAY\", Blank Schedule Type Limits Name input -- will not be validated.\n   ** Warning ** ProcessScheduleInput: Schedule:Day:Interval=\"ZONE EAST PERIMETER SPACE - STORY TOP PSZ-AC OCC SCH DEFAULT\", Blank Schedule Type Limits Name input -- will not be validated.\n   ** Warning ** ProcessScheduleInput: Schedule:Day:Interval=\"ZONE EAST PERIMETER SPACE - STORY TOP PSZ-AC OCC SCH SATURDAY\", Blank Schedule Type Limits Name input -- will not be validated.\n   ** Warning ** ProcessScheduleInput: Schedule:Day:Interval=\"ZONE EAST PERIMETER SPACE - STORY TOP PSZ-AC OCC SCH SUMMER DESIGN DAY\", Blank Schedule Type Limits Name input -- will not be validated.\n   ** Warning ** ProcessScheduleInput: Schedule:Day:Interval=\"ZONE EAST PERIMETER SPACE - STORY TOP PSZ-AC OCC SCH SUNDAY\", Blank Schedule Type Limits Name input -- will not be validated.\n   ** Warning ** ProcessScheduleInput: Schedule:Day:Interval=\"ZONE EAST PERIMETER SPACE - STORY TOP PSZ-AC OCC SCH WINTER DESIGN DAY\", Blank Schedule Type Limits Name input -- will not be validated.\n   ** Warning ** ProcessScheduleInput: Schedule:Day:Interval=\"ZONE NORTH PERIMETER SPACE - STORY GROUND PSZ-AC OCC SCH DEFAULT\", Blank Schedule Type Limits Name input -- will not be validated.\n   ** Warning ** ProcessScheduleInput: Schedule:Day:Interval=\"ZONE NORTH PERIMETER SPACE - STORY GROUND PSZ-AC OCC SCH SATURDAY\", Blank Schedule Type Limits Name input -- will not be validated.\n   ** Warning ** ProcessScheduleInput: Schedule:Day:Interval=\"ZONE NORTH PERIMETER SPACE - STORY GROUND PSZ-AC OCC SCH SUMMER DESIGN DAY\", Blank Schedule Type Limits Name input -- will not be validated.\n   ** Warning ** ProcessScheduleInput: Schedule:Day:Interval=\"ZONE NORTH PERIMETER SPACE - STORY GROUND PSZ-AC OCC SCH SUNDAY\", Blank Schedule Type Limits Name input -- will not be validated.\n   ** Warning ** ProcessScheduleInput: Schedule:Day:Interval=\"ZONE NORTH PERIMETER SPACE - STORY GROUND PSZ-AC OCC SCH WINTER DESIGN DAY\", Blank Schedule Type Limits Name input -- will not be validated.\n   ** Warning ** ProcessScheduleInput: Schedule:Day:Interval=\"ZONE NORTH PERIMETER SPACE - STORY MID PSZ-AC OCC SCH DEFAULT\", Blank Schedule Type Limits Name input -- will not be validated.\n   ** Warning ** ProcessScheduleInput: Schedule:Day:Interval=\"ZONE NORTH PERIMETER SPACE - STORY MID PSZ-AC OCC SCH SATURDAY\", Blank Schedule Type Limits Name input -- will not be validated.\n   ** Warning ** ProcessScheduleInput: Schedule:Day:Interval=\"ZONE NORTH PERIMETER SPACE - STORY MID PSZ-AC OCC SCH SUMMER DESIGN DAY\", Blank Schedule Type Limits Name input -- will not be validated.\n   ** Warning ** ProcessScheduleInput: Schedule:Day:Interval=\"ZONE NORTH PERIMETER SPACE - STORY MID PSZ-AC OCC SCH SUNDAY\", Blank Schedule Type Limits Name input -- will not be validated.\n   ** Warning ** ProcessScheduleInput: Schedule:Day:Interval=\"ZONE NORTH PERIMETER SPACE - STORY MID PSZ-AC OCC SCH WINTER DESIGN DAY\", Blank Schedule Type Limits Name input -- will not be validated.\n   ** Warning ** ProcessScheduleInput: Schedule:Day:Interval=\"ZONE NORTH PERIMETER SPACE - STORY TOP PSZ-AC OCC SCH DEFAULT\", Blank Schedule Type Limits Name input -- will not be validated.\n   ** Warning ** ProcessScheduleInput: Schedule:Day:Interval=\"ZONE NORTH PERIMETER SPACE - STORY TOP PSZ-AC OCC SCH SATURDAY\", Blank Schedule Type Limits Name input -- will not be validated.\n   ** Warning ** ProcessScheduleInput: Schedule:Day:Interval=\"ZONE NORTH PERIMETER SPACE - STORY TOP PSZ-AC OCC SCH SUMMER DESIGN DAY\", Blank Schedule Type Limits Name input -- will not be validated.\n   ** Warning ** ProcessScheduleInput: Schedule:Day:Interval=\"ZONE NORTH PERIMETER SPACE - STORY TOP PSZ-AC OCC SCH SUNDAY\", Blank Schedule Type Limits Name input -- will not be validated.\n   ** Warning ** ProcessScheduleInput: Schedule:Day:Interval=\"ZONE NORTH PERIMETER SPACE - STORY TOP PSZ-AC OCC SCH WINTER DESIGN DAY\", Blank Schedule Type Limits Name input -- will not be validated.\n   ** Warning ** ProcessScheduleInput: Schedule:Day:Interval=\"ZONE SOUTH PERIMETER SPACE - STORY GROUND PSZ-AC OCC SCH DEFAULT\", Blank Schedule Type Limits Name input -- will not be validated.\n   ** Warning ** ProcessScheduleInput: Schedule:Day:Interval=\"ZONE SOUTH PERIMETER SPACE - STORY GROUND PSZ-AC OCC SCH SATURDAY\", Blank Schedule Type Limits Name input -- will not be validated.\n   ** Warning ** ProcessScheduleInput: Schedule:Day:Interval=\"ZONE SOUTH PERIMETER SPACE - STORY GROUND PSZ-AC OCC SCH SUMMER DESIGN DAY\", Blank Schedule Type Limits Name input -- will not be validated.\n   ** Warning ** ProcessScheduleInput: Schedule:Day:Interval=\"ZONE SOUTH PERIMETER SPACE - STORY GROUND PSZ-AC OCC SCH SUNDAY\", Blank Schedule Type Limits Name input -- will not be validated.\n   ** Warning ** ProcessScheduleInput: Schedule:Day:Interval=\"ZONE SOUTH PERIMETER SPACE - STORY GROUND PSZ-AC OCC SCH WINTER DESIGN DAY\", Blank Schedule Type Limits Name input -- will not be validated.\n   ** Warning ** ProcessScheduleInput: Schedule:Day:Interval=\"ZONE SOUTH PERIMETER SPACE - STORY MID PSZ-AC OCC SCH DEFAULT\", Blank Schedule Type Limits Name input -- will not be validated.\n   ** Warning ** ProcessScheduleInput: Schedule:Day:Interval=\"ZONE SOUTH PERIMETER SPACE - STORY MID PSZ-AC OCC SCH SATURDAY\", Blank Schedule Type Limits Name input -- will not be validated.\n   ** Warning ** ProcessScheduleInput: Schedule:Day:Interval=\"ZONE SOUTH PERIMETER SPACE - STORY MID PSZ-AC OCC SCH SUMMER DESIGN DAY\", Blank Schedule Type Limits Name input -- will not be validated.\n   ** Warning ** ProcessScheduleInput: Schedule:Day:Interval=\"ZONE SOUTH PERIMETER SPACE - STORY MID PSZ-AC OCC SCH SUNDAY\", Blank Schedule Type Limits Name input -- will not be validated.\n   ** Warning ** ProcessScheduleInput: Schedule:Day:Interval=\"ZONE SOUTH PERIMETER SPACE - STORY MID PSZ-AC OCC SCH WINTER DESIGN DAY\", Blank Schedule Type Limits Name input -- will not be validated.\n   ** Warning ** ProcessScheduleInput: Schedule:Day:Interval=\"ZONE SOUTH PERIMETER SPACE - STORY TOP PSZ-AC OCC SCH DEFAULT\", Blank Schedule Type Limits Name input -- will not be validated.\n   ** Warning ** ProcessScheduleInput: Schedule:Day:Interval=\"ZONE SOUTH PERIMETER SPACE - STORY TOP PSZ-AC OCC SCH SATURDAY\", Blank Schedule Type Limits Name input -- will not be validated.\n   ** Warning ** ProcessScheduleInput: Schedule:Day:Interval=\"ZONE SOUTH PERIMETER SPACE - STORY TOP PSZ-AC OCC SCH SUMMER DESIGN DAY\", Blank Schedule Type Limits Name input -- will not be validated.\n   ** Warning ** ProcessScheduleInput: Schedule:Day:Interval=\"ZONE SOUTH PERIMETER SPACE - STORY TOP PSZ-AC OCC SCH SUNDAY\", Blank Schedule Type Limits Name input -- will not be validated.\n   ** Warning ** ProcessScheduleInput: Schedule:Day:Interval=\"ZONE SOUTH PERIMETER SPACE - STORY TOP PSZ-AC OCC SCH WINTER DESIGN DAY\", Blank Schedule Type Limits Name input -- will not be validated.\n   ** Warning ** ProcessScheduleInput: Schedule:Day:Interval=\"ZONE WEST PERIMETER SPACE - STORY GROUND PSZ-AC OCC SCH DEFAULT\", Blank Schedule Type Limits Name input -- will not be validated.\n   ** Warning ** ProcessScheduleInput: Schedule:Day:Interval=\"ZONE WEST PERIMETER SPACE - STORY GROUND PSZ-AC OCC SCH SATURDAY\", Blank Schedule Type Limits Name input -- will not be validated.\n   ** Warning ** ProcessScheduleInput: Schedule:Day:Interval=\"ZONE WEST PERIMETER SPACE - STORY GROUND PSZ-AC OCC SCH SUMMER DESIGN DAY\", Blank Schedule Type Limits Name input -- will not be validated.\n   ** Warning ** ProcessScheduleInput: Schedule:Day:Interval=\"ZONE WEST PERIMETER SPACE - STORY GROUND PSZ-AC OCC SCH SUNDAY\", Blank Schedule Type Limits Name input -- will not be validated.\n   ** Warning ** ProcessScheduleInput: Schedule:Day:Interval=\"ZONE WEST PERIMETER SPACE - STORY GROUND PSZ-AC OCC SCH WINTER DESIGN DAY\", Blank Schedule Type Limits Name input -- will not be validated.\n   ** Warning ** ProcessScheduleInput: Schedule:Day:Interval=\"ZONE WEST PERIMETER SPACE - STORY MID PSZ-AC OCC SCH DEFAULT\", Blank Schedule Type Limits Name input -- will not be validated.\n   ** Warning ** ProcessScheduleInput: Schedule:Day:Interval=\"ZONE WEST PERIMETER SPACE - STORY MID PSZ-AC OCC SCH SATURDAY\", Blank Schedule Type Limits Name input -- will not be validated.\n   ** Warning ** ProcessScheduleInput: Schedule:Day:Interval=\"ZONE WEST PERIMETER SPACE - STORY MID PSZ-AC OCC SCH SUMMER DESIGN DAY\", Blank Schedule Type Limits Name input -- will not be validated.\n   ** Warning ** ProcessScheduleInput: Schedule:Day:Interval=\"ZONE WEST PERIMETER SPACE - STORY MID PSZ-AC OCC SCH SUNDAY\", Blank Schedule Type Limits Name input -- will not be validated.\n   ** Warning ** ProcessScheduleInput: Schedule:Day:Interval=\"ZONE WEST PERIMETER SPACE - STORY MID PSZ-AC OCC SCH WINTER DESIGN DAY\", Blank Schedule Type Limits Name input -- will not be validated.\n   ** Warning ** ProcessScheduleInput: Schedule:Day:Interval=\"ZONE WEST PERIMETER SPACE - STORY TOP PSZ-AC OCC SCH DEFAULT\", Blank Schedule Type Limits Name input -- will not be validated.\n   ** Warning ** ProcessScheduleInput: Schedule:Day:Interval=\"ZONE WEST PERIMETER SPACE - STORY TOP PSZ-AC OCC SCH SATURDAY\", Blank Schedule Type Limits Name input -- will not be validated.\n   ** Warning ** ProcessScheduleInput: Schedule:Day:Interval=\"ZONE WEST PERIMETER SPACE - STORY TOP PSZ-AC OCC SCH SUMMER DESIGN DAY\", Blank Schedule Type Limits Name input -- will not be validated.\n   ** Warning ** ProcessScheduleInput: Schedule:Day:Interval=\"ZONE WEST PERIMETER SPACE - STORY TOP PSZ-AC OCC SCH SUNDAY\", Blank Schedule Type Limits Name input -- will not be validated.\n   ** Warning ** ProcessScheduleInput: Schedule:Day:Interval=\"ZONE WEST PERIMETER SPACE - STORY TOP PSZ-AC OCC SCH WINTER DESIGN DAY\", Blank Schedule Type Limits Name input -- will not be validated.\n   ** Warning ** ProcessScheduleInput: Schedule:Year=\"ZONE CORE SPACE - STORY GROUND PSZ-AC OCC SCH\", Blank Schedule Type Limits Name input -- will not be validated.\n   ** Warning ** ProcessScheduleInput: Schedule:Year=\"ZONE CORE SPACE - STORY MID PSZ-AC OCC SCH\", Blank Schedule Type Limits Name input -- will not be validated.\n   ** Warning ** ProcessScheduleInput: Schedule:Year=\"ZONE CORE SPACE - STORY TOP PSZ-AC OCC SCH\", Blank Schedule Type Limits Name input -- will not be validated.\n   ** Warning ** ProcessScheduleInput: Schedule:Year=\"ZONE EAST PERIMETER SPACE - STORY GROUND PSZ-AC OCC SCH\", Blank Schedule Type Limits Name input -- will not be validated.\n   ** Warning ** ProcessScheduleInput: Schedule:Year=\"ZONE EAST PERIMETER SPACE - STORY MID PSZ-AC OCC SCH\", Blank Schedule Type Limits Name input -- will not be validated.\n   ** Warning ** ProcessScheduleInput: Schedule:Year=\"ZONE EAST PERIMETER SPACE - STORY TOP PSZ-AC OCC SCH\", Blank Schedule Type Limits Name input -- will not be validated.\n   ** Warning ** ProcessScheduleInput: Schedule:Year=\"ZONE NORTH PERIMETER SPACE - STORY GROUND PSZ-AC OCC SCH\", Blank Schedule Type Limits Name input -- will not be validated.\n   ** Warning ** ProcessScheduleInput: Schedule:Year=\"ZONE NORTH PERIMETER SPACE - STORY MID PSZ-AC OCC SCH\", Blank Schedule Type Limits Name input -- will not be validated.\n   ** Warning ** ProcessScheduleInput: Schedule:Year=\"ZONE NORTH PERIMETER SPACE - STORY TOP PSZ-AC OCC SCH\", Blank Schedule Type Limits Name input -- will not be validated.\n   ** Warning ** ProcessScheduleInput: Schedule:Year=\"ZONE SOUTH PERIMETER SPACE - STORY GROUND PSZ-AC OCC SCH\", Blank Schedule Type Limits Name input -- will not be validated.\n   ** Warning ** ProcessScheduleInput: Schedule:Year=\"ZONE SOUTH PERIMETER SPACE - STORY MID PSZ-AC OCC SCH\", Blank Schedule Type Limits Name input -- will not be validated.\n   ** Warning ** ProcessScheduleInput: Schedule:Year=\"ZONE SOUTH PERIMETER SPACE - STORY TOP PSZ-AC OCC SCH\", Blank Schedule Type Limits Name input -- will not be validated.\n   ** Warning ** ProcessScheduleInput: Schedule:Year=\"ZONE WEST PERIMETER SPACE - STORY GROUND PSZ-AC OCC SCH\", Blank Schedule Type Limits Name input -- will not be validated.\n   ** Warning ** ProcessScheduleInput: Schedule:Year=\"ZONE WEST PERIMETER SPACE - STORY MID PSZ-AC OCC SCH\", Blank Schedule Type Limits Name input -- will not be validated.\n   ** Warning ** ProcessScheduleInput: Schedule:Year=\"ZONE WEST PERIMETER SPACE - STORY TOP PSZ-AC OCC SCH\", Blank Schedule Type Limits Name input -- will not be validated.\n   ** Warning ** ProcessScheduleInput: Schedule:Constant=\"ALWAYS OFF DISCRETE\", Blank Schedule Type Limits Name input -- will not be validated.\n   ** Warning ** ProcessScheduleInput: Schedule:Constant=\"ALWAYS ON CONTINUOUS\", Blank Schedule Type Limits Name input -- will not be validated.\n   ** Warning ** Shading:Zone:Detailed=\"PV - SUB SURFACE 3\", Base Surface Name=\"SURFACE 14\", is always transparent.\n   ** Warning ** Shading:Zone:Detailed=\"PV - SUB SURFACE 7\", Base Surface Name=\"SURFACE 44\", is always transparent.\n   ** Warning ** Shading:Zone:Detailed=\"PV - SUB SURFACE 11\", Base Surface Name=\"SURFACE 74\", is always transparent.\n   ** Warning ** CheckUsedConstructions: There are 10 nominally unused constructions in input.\n   **   ~~~   ** For explicit details on each unused construction, use Output:Diagnostics,DisplayExtraWarnings;\n   ** Warning ** GetInternalHeatGains: People=\"OFFICE WHOLEBUILDING - MD OFFICE 1 PEOPLE\" has comfort related schedules but no thermal comfort model selected.\n   **   ~~~   ** If schedules are specified for air velocity, clothing insulation, and/or work efficiency but no thermal comfort\n   **   ~~~   ** thermal comfort model is selected, the schedules will be listed as unused schedules in the .err file.\n   **   ~~~   ** To avoid these errors, select a valid thermal comfort model or eliminate these schedules in the PEOPLE input.\n   ** Warning ** GetInternalHeatGains: People=\"OFFICE WHOLEBUILDING - MD OFFICE 1 PEOPLE\" has comfort related schedules but no thermal comfort model selected.\n   **   ~~~   ** If schedules are specified for air velocity, clothing insulation, and/or work efficiency but no thermal comfort\n   **   ~~~   ** thermal comfort model is selected, the schedules will be listed as unused schedules in the .err file.\n   **   ~~~   ** To avoid these errors, select a valid thermal comfort model or eliminate these schedules in the PEOPLE input.\n   ** Warning ** GetInternalHeatGains: People=\"OFFICE WHOLEBUILDING - MD OFFICE 1 PEOPLE\" has comfort related schedules but no thermal comfort model selected.\n   **   ~~~   ** If schedules are specified for air velocity, clothing insulation, and/or work efficiency but no thermal comfort\n   **   ~~~   ** thermal comfort model is selected, the schedules will be listed as unused schedules in the .err file.\n   **   ~~~   ** To avoid these errors, select a valid thermal comfort model or eliminate these schedules in the PEOPLE input.\n   ** Warning ** GetInternalHeatGains: People=\"OFFICE WHOLEBUILDING - MD OFFICE 1 PEOPLE\" has comfort related schedules but no thermal comfort model selected.\n   **   ~~~   ** If schedules are specified for air velocity, clothing insulation, and/or work efficiency but no thermal comfort\n   **   ~~~   ** thermal comfort model is selected, the schedules will be listed as unused schedules in the .err file.\n   **   ~~~   ** To avoid these errors, select a valid thermal comfort model or eliminate these schedules in the PEOPLE input.\n   ** Warning ** GetInternalHeatGains: People=\"OFFICE WHOLEBUILDING - MD OFFICE 1 PEOPLE\" has comfort related schedules but no thermal comfort model selected.\n   **   ~~~   ** If schedules are specified for air velocity, clothing insulation, and/or work efficiency but no thermal comfort\n   **   ~~~   ** thermal comfort model is selected, the schedules will be listed as unused schedules in the .err file.\n   **   ~~~   ** To avoid these errors, select a valid thermal comfort model or eliminate these schedules in the PEOPLE input.\n   ** Warning ** GetInternalHeatGains: People=\"OFFICE WHOLEBUILDING - MD OFFICE 1 PEOPLE\" has comfort related schedules but no thermal comfort model selected.\n   **   ~~~   ** If schedules are specified for air velocity, clothing insulation, and/or work efficiency but no thermal comfort\n   **   ~~~   ** thermal comfort model is selected, the schedules will be listed as unused schedules in the .err file.\n   **   ~~~   ** To avoid these errors, select a valid thermal comfort model or eliminate these schedules in the PEOPLE input.\n   ** Warning ** GetInternalHeatGains: People=\"OFFICE WHOLEBUILDING - MD OFFICE 1 PEOPLE\" has comfort related schedules but no thermal comfort model selected.\n   **   ~~~   ** If schedules are specified for air velocity, clothing insulation, and/or work efficiency but no thermal comfort\n   **   ~~~   ** thermal comfort model is selected, the schedules will be listed as unused schedules in the .err file.\n   **   ~~~   ** To avoid these errors, select a valid thermal comfort model or eliminate these schedules in the PEOPLE input.\n   ** Warning ** GetInternalHeatGains: People=\"OFFICE WHOLEBUILDING - MD OFFICE 1 PEOPLE\" has comfort related schedules but no thermal comfort model selected.\n   **   ~~~   ** If schedules are specified for air velocity, clothing insulation, and/or work efficiency but no thermal comfort\n   **   ~~~   ** thermal comfort model is selected, the schedules will be listed as unused schedules in the .err file.\n   **   ~~~   ** To avoid these errors, select a valid thermal comfort model or eliminate these schedules in the PEOPLE input.\n   ** Warning ** GetInternalHeatGains: People=\"OFFICE WHOLEBUILDING - MD OFFICE 1 PEOPLE\" has comfort related schedules but no thermal comfort model selected.\n   **   ~~~   ** If schedules are specified for air velocity, clothing insulation, and/or work efficiency but no thermal comfort\n   **   ~~~   ** thermal comfort model is selected, the schedules will be listed as unused schedules in the .err file.\n   **   ~~~   ** To avoid these errors, select a valid thermal comfort model or eliminate these schedules in the PEOPLE input.\n   ** Warning ** GetInternalHeatGains: People=\"OFFICE WHOLEBUILDING - MD OFFICE 1 PEOPLE\" has comfort related schedules but no thermal comfort model selected.\n   **   ~~~   ** If schedules are specified for air velocity, clothing insulation, and/or work efficiency but no thermal comfort\n   **   ~~~   ** thermal comfort model is selected, the schedules will be listed as unused schedules in the .err file.\n   **   ~~~   ** To avoid these errors, select a valid thermal comfort model or eliminate these schedules in the PEOPLE input.\n   ** Warning ** GetInternalHeatGains: People=\"OFFICE WHOLEBUILDING - MD OFFICE 1 PEOPLE\" has comfort related schedules but no thermal comfort model selected.\n   **   ~~~   ** If schedules are specified for air velocity, clothing insulation, and/or work efficiency but no thermal comfort\n   **   ~~~   ** thermal comfort model is selected, the schedules will be listed as unused schedules in the .err file.\n   **   ~~~   ** To avoid these errors, select a valid thermal comfort model or eliminate these schedules in the PEOPLE input.\n   ** Warning ** GetInternalHeatGains: People=\"OFFICE WHOLEBUILDING - MD OFFICE 1 PEOPLE\" has comfort related schedules but no thermal comfort model selected.\n   **   ~~~   ** If schedules are specified for air velocity, clothing insulation, and/or work efficiency but no thermal comfort\n   **   ~~~   ** thermal comfort model is selected, the schedules will be listed as unused schedules in the .err file.\n   **   ~~~   ** To avoid these errors, select a valid thermal comfort model or eliminate these schedules in the PEOPLE input.\n   ** Warning ** GetInternalHeatGains: People=\"OFFICE WHOLEBUILDING - MD OFFICE 1 PEOPLE\" has comfort related schedules but no thermal comfort model selected.\n   **   ~~~   ** If schedules are specified for air velocity, clothing insulation, and/or work efficiency but no thermal comfort\n   **   ~~~   ** thermal comfort model is selected, the schedules will be listed as unused schedules in the .err file.\n   **   ~~~   ** To avoid these errors, select a valid thermal comfort model or eliminate these schedules in the PEOPLE input.\n   ** Warning ** GetInternalHeatGains: People=\"OFFICE WHOLEBUILDING - MD OFFICE 1 PEOPLE\" has comfort related schedules but no thermal comfort model selected.\n   **   ~~~   ** If schedules are specified for air velocity, clothing insulation, and/or work efficiency but no thermal comfort\n   **   ~~~   ** thermal comfort model is selected, the schedules will be listed as unused schedules in the .err file.\n   **   ~~~   ** To avoid these errors, select a valid thermal comfort model or eliminate these schedules in the PEOPLE input.\n   ** Warning ** GetInternalHeatGains: People=\"OFFICE WHOLEBUILDING - MD OFFICE 1 PEOPLE\" has comfort related schedules but no thermal comfort model selected.\n   **   ~~~   ** If schedules are specified for air velocity, clothing insulation, and/or work efficiency but no thermal comfort\n   **   ~~~   ** thermal comfort model is selected, the schedules will be listed as unused schedules in the .err file.\n   **   ~~~   ** To avoid these errors, select a valid thermal comfort model or eliminate these schedules in the PEOPLE input.\n   ** Warning ** GetDaylightingControls: Fraction of Zone controlled by the Daylighting reference points is < 1.0.\n   **   ~~~   ** ..discovered in \"Daylighting:Controls\" for Zone=\"ZONE EAST PERIMETER SPACE - STORY GROUND\", only 0.52 of the zone is controlled.\n   ** Warning ** GetDaylightingControls: Fraction of Zone controlled by the Daylighting reference points is < 1.0.\n   **   ~~~   ** ..discovered in \"Daylighting:Controls\" for Zone=\"ZONE EAST PERIMETER SPACE - STORY MID\", only 0.52 of the zone is controlled.\n   ** Warning ** GetDaylightingControls: Fraction of Zone controlled by the Daylighting reference points is < 1.0.\n   **   ~~~   ** ..discovered in \"Daylighting:Controls\" for Zone=\"ZONE EAST PERIMETER SPACE - STORY TOP\", only 0.52 of the zone is controlled.\n   ** Warning ** GetDaylightingControls: Fraction of Zone controlled by the Daylighting reference points is < 1.0.\n   **   ~~~   ** ..discovered in \"Daylighting:Controls\" for Zone=\"ZONE NORTH PERIMETER SPACE - STORY GROUND\", only 0.51 of the zone is controlled.\n   ** Warning ** GetDaylightingControls: Fraction of Zone controlled by the Daylighting reference points is < 1.0.\n   **   ~~~   ** ..discovered in \"Daylighting:Controls\" for Zone=\"ZONE NORTH PERIMETER SPACE - STORY MID\", only 0.51 of the zone is controlled.\n   ** Warning ** GetDaylightingControls: Fraction of Zone controlled by the Daylighting reference points is < 1.0.\n   **   ~~~   ** ..discovered in \"Daylighting:Controls\" for Zone=\"ZONE NORTH PERIMETER SPACE - STORY TOP\", only 0.51 of the zone is controlled.\n   ** Warning ** GetDaylightingControls: Fraction of Zone controlled by the Daylighting reference points is < 1.0.\n   **   ~~~   ** ..discovered in \"Daylighting:Controls\" for Zone=\"ZONE SOUTH PERIMETER SPACE - STORY GROUND\", only 0.51 of the zone is controlled.\n   ** Warning ** GetDaylightingControls: Fraction of Zone controlled by the Daylighting reference points is < 1.0.\n   **   ~~~   ** ..discovered in \"Daylighting:Controls\" for Zone=\"ZONE SOUTH PERIMETER SPACE - STORY MID\", only 0.51 of the zone is controlled.\n   ** Warning ** GetDaylightingControls: Fraction of Zone controlled by the Daylighting reference points is < 1.0.\n   **   ~~~   ** ..discovered in \"Daylighting:Controls\" for Zone=\"ZONE SOUTH PERIMETER SPACE - STORY TOP\", only 0.51 of the zone is controlled.\n   ** Warning ** GetDaylightingControls: Fraction of Zone controlled by the Daylighting reference points is < 1.0.\n   **   ~~~   ** ..discovered in \"Daylighting:Controls\" for Zone=\"ZONE WEST PERIMETER SPACE - STORY GROUND\", only 0.52 of the zone is controlled.\n   ** Warning ** GetDaylightingControls: Fraction of Zone controlled by the Daylighting reference points is < 1.0.\n   **   ~~~   ** ..discovered in \"Daylighting:Controls\" for Zone=\"ZONE WEST PERIMETER SPACE - STORY MID\", only 0.52 of the zone is controlled.\n   ** Warning ** GetDaylightingControls: Fraction of Zone controlled by the Daylighting reference points is < 1.0.\n   **   ~~~   ** ..discovered in \"Daylighting:Controls\" for Zone=\"ZONE WEST PERIMETER SPACE - STORY TOP\", only 0.52 of the zone is controlled.\n   ************* Beginning System Sizing Calculations\n   ************* Beginning Plant Sizing Calculations\n   ** Warning ** The Standard Ratings is calculated for Coil:Cooling:DX:SingleSpeed = ZONE CORE SPACE - STORY GROUND PSZ-AC 1SPD DX AC CLG COIL 113KBTU/HR 11.0EER but not at the AHRI test condition due to curve out of bound.\n   **   ~~~   **  Review the Standard Ratings calculations in the Engineering Reference for this coil type. Also, use Output:Diagnostics, DisplayExtraWarnings for further guidance.\n   ** Warning ** The Standard Ratings is calculated for Coil:Cooling:DX:SingleSpeed = ZONE CORE SPACE - STORY MID PSZ-AC 1SPD DX AC CLG COIL 153KBTU/HR 10.8EER but not at the AHRI test condition due to curve out of bound.\n   **   ~~~   **  Review the Standard Ratings calculations in the Engineering Reference for this coil type. Also, use Output:Diagnostics, DisplayExtraWarnings for further guidance.\n   ** Warning ** The Standard Ratings is calculated for Coil:Cooling:DX:SingleSpeed = ZONE CORE SPACE - STORY TOP PSZ-AC 1SPD DX AC CLG COIL 184KBTU/HR 10.8EER but not at the AHRI test condition due to curve out of bound.\n   **   ~~~   **  Review the Standard Ratings calculations in the Engineering Reference for this coil type. Also, use Output:Diagnostics, DisplayExtraWarnings for further guidance.\n   ** Warning ** The Standard Ratings is calculated for Coil:Cooling:DX:SingleSpeed = ZONE EAST PERIMETER SPACE - STORY GROUND PSZ-AC 1SPD DX AC CLG COIL 42KBTU/HR 14.0SEER but not at the AHRI test condition due to curve out of bound.\n   **   ~~~   **  Review the Standard Ratings calculations in the Engineering Reference for this coil type. Also, use Output:Diagnostics, DisplayExtraWarnings for further guidance.\n   ** Warning ** The Standard Ratings is calculated for Coil:Cooling:DX:SingleSpeed = ZONE EAST PERIMETER SPACE - STORY MID PSZ-AC 1SPD DX AC CLG COIL 50KBTU/HR 14.0SEER but not at the AHRI test condition due to curve out of bound.\n   **   ~~~   **  Review the Standard Ratings calculations in the Engineering Reference for this coil type. Also, use Output:Diagnostics, DisplayExtraWarnings for further guidance.\n   ** Warning ** The Standard Ratings is calculated for Coil:Cooling:DX:SingleSpeed = ZONE EAST PERIMETER SPACE - STORY TOP PSZ-AC 1SPD DX AC CLG COIL 58KBTU/HR 14.0SEER but not at the AHRI test condition due to curve out of bound.\n   **   ~~~   **  Review the Standard Ratings calculations in the Engineering Reference for this coil type. Also, use Output:Diagnostics, DisplayExtraWarnings for further guidance.\n   ** Warning ** The Standard Ratings is calculated for Coil:Cooling:DX:SingleSpeed = ZONE NORTH PERIMETER SPACE - STORY GROUND PSZ-AC 1SPD DX AC CLG COIL 49KBTU/HR 14.0SEER but not at the AHRI test condition due to curve out of bound.\n   **   ~~~   **  Review the Standard Ratings calculations in the Engineering Reference for this coil type. Also, use Output:Diagnostics, DisplayExtraWarnings for further guidance.\n   ** Warning ** The Standard Ratings is calculated for Coil:Cooling:DX:SingleSpeed = ZONE NORTH PERIMETER SPACE - STORY MID PSZ-AC 1SPD DX AC CLG COIL 61KBTU/HR 14.0SEER but not at the AHRI test condition due to curve out of bound.\n   **   ~~~   **  Review the Standard Ratings calculations in the Engineering Reference for this coil type. Also, use Output:Diagnostics, DisplayExtraWarnings for further guidance.\n   ** Warning ** The Standard Ratings is calculated for Coil:Cooling:DX:SingleSpeed = ZONE NORTH PERIMETER SPACE - STORY TOP PSZ-AC 1SPD DX AC CLG COIL 73KBTU/HR 11.0EER but not at the AHRI test condition due to curve out of bound.\n   **   ~~~   **  Review the Standard Ratings calculations in the Engineering Reference for this coil type. Also, use Output:Diagnostics, DisplayExtraWarnings for further guidance.\n   ** Warning ** The Standard Ratings is calculated for Coil:Cooling:DX:SingleSpeed = ZONE SOUTH PERIMETER SPACE - STORY GROUND PSZ-AC 1SPD DX AC CLG COIL 50KBTU/HR 14.0SEER but not at the AHRI test condition due to curve out of bound.\n   **   ~~~   **  Review the Standard Ratings calculations in the Engineering Reference for this coil type. Also, use Output:Diagnostics, DisplayExtraWarnings for further guidance.\n   ** Warning ** The Standard Ratings is calculated for Coil:Cooling:DX:SingleSpeed = ZONE SOUTH PERIMETER SPACE - STORY MID PSZ-AC 1SPD DX AC CLG COIL 62KBTU/HR 14.0SEER but not at the AHRI test condition due to curve out of bound.\n   **   ~~~   **  Review the Standard Ratings calculations in the Engineering Reference for this coil type. Also, use Output:Diagnostics, DisplayExtraWarnings for further guidance.\n   ** Warning ** The Standard Ratings is calculated for Coil:Cooling:DX:SingleSpeed = ZONE SOUTH PERIMETER SPACE - STORY TOP PSZ-AC 1SPD DX AC CLG COIL 74KBTU/HR 11.0EER but not at the AHRI test condition due to curve out of bound.\n   **   ~~~   **  Review the Standard Ratings calculations in the Engineering Reference for this coil type. Also, use Output:Diagnostics, DisplayExtraWarnings for further guidance.\n   ** Warning ** The Standard Ratings is calculated for Coil:Cooling:DX:SingleSpeed = ZONE WEST PERIMETER SPACE - STORY GROUND PSZ-AC 1SPD DX AC CLG COIL 49KBTU/HR 14.0SEER but not at the AHRI test condition due to curve out of bound.\n   **   ~~~   **  Review the Standard Ratings calculations in the Engineering Reference for this coil type. Also, use Output:Diagnostics, DisplayExtraWarnings for further guidance.\n   ** Warning ** The Standard Ratings is calculated for Coil:Cooling:DX:SingleSpeed = ZONE WEST PERIMETER SPACE - STORY MID PSZ-AC 1SPD DX AC CLG COIL 57KBTU/HR 14.0SEER but not at the AHRI test condition due to curve out of bound.\n   **   ~~~   **  Review the Standard Ratings calculations in the Engineering Reference for this coil type. Also, use Output:Diagnostics, DisplayExtraWarnings for further guidance.\n   ** Warning ** The Standard Ratings is calculated for Coil:Cooling:DX:SingleSpeed = ZONE WEST PERIMETER SPACE - STORY TOP PSZ-AC 1SPD DX AC CLG COIL 68KBTU/HR 11.0EER but not at the AHRI test condition due to curve out of bound.\n   **   ~~~   **  Review the Standard Ratings calculations in the Engineering Reference for this coil type. Also, use Output:Diagnostics, DisplayExtraWarnings for further guidance.\n   ** Warning ** SizePlantLoop: Calculated Plant Sizing Design Volume Flow Rate=[0.00] is too small. Set to 0.0\n   **   ~~~   ** ..occurs for PlantLoop=HOT WATER LOOP\n   ** Warning ** SizePump: Calculated Pump Nominal Volume Flow Rate=[0.00] is too small. Set to 0.0\n   **   ~~~   ** ..occurs for Pump=HOT WATER LOOP PUMP\n   ** Warning ** Check input. Pump nominal power or motor efficiency is set to 0, for pump=HOT WATER LOOP PUMP\n   ** Warning ** Check input. Pump nominal flow rate is set or calculated = 0, for pump=HOT WATER LOOP PUMP\n   ** Warning ** Missing temperature setpoint for LeavingSetpointModulated mode Boiler named BOILER\n   **   ~~~   **   A temperature setpoint is needed at the outlet node of a boiler in variable flow mode\n   **   ~~~   **   use a Setpoint Manager to establish a setpoint at the boiler outlet node \n   **   ~~~   **   or use an EMS actuator to establish a setpoint at the boiler outlet node \n   **   ~~~   **   The overall loop setpoint will be assumed for Boiler. The simulation continues ... \n   ** Warning ** Output:Meter: invalid Key Name=\"DISTRICTCOOLING:FACILITY\" - not found.\n   ** Warning ** Output:Meter: invalid Key Name=\"DISTRICTHEATING:FACILITY\" - not found.\n   ** Warning ** Output:Meter:MeterFileOnly requested for \"Electricity:Facility\" (TimeStep), already on \"Output:Meter\". Will report to both eplusout.eso and eplusout.mtr\n   ************* Testing Individual Branch Integrity\n   ************* All Branches passed integrity testing\n   ************* Testing Individual Supply Air Path Integrity\n   ************* All Supply Air Paths passed integrity testing\n   ************* Testing Individual Return Air Path Integrity\n   ************* All Return Air Paths passed integrity testing\n   ************* No node connection errors were found.\n   ************* Beginning Simulation\n   ** Warning ** Processing Monthly Tabular Reports: Variable names not valid for this simulation\n   **   ~~~   ** ...use Output:Diagnostics,DisplayExtraWarnings; to show more details on individual variables.\n   ** Warning ** CalcDoe2DXCoil: Coil:Cooling:DX:SingleSpeed \"ZONE CORE SPACE - STORY GROUND PSZ-AC 1SPD DX AC CLG COIL 113KBTU/HR 11.0EER\" - Full load outlet air dry-bulb temperature < 2C. This indicates the possibility of coil frost/freeze. Outlet temperature = 1.05 C.\n   **   ~~~   **  ...Occurrence info = RUN PERIOD 1, 01/03 07:15 - 07:19\n   **   ~~~   ** ... Possible reasons for low outlet air dry-bulb temperatures are: This DX coil\n   **   ~~~   **    1) may have a low inlet air dry-bulb temperature. Inlet air temperature = 18.126 C.\n   **   ~~~   **    2) may have a low air flow rate per watt of cooling capacity. Check inputs.\n   **   ~~~   **    3) is used as part of a HX assisted cooling coil which uses a high sensible effectiveness. Check inputs.\n   ** Warning ** The resource referenced by LifeCycleCost:UsePriceEscalation= \"U.S. AVG  COMMERCIAL-ELECTRICITY\" has no energy cost. \n   **   ~~~   ** ... It is likely that the wrong resource is used. The resource should match the meter used in Utility:Tariff.\n   ** Warning ** The resource referenced by LifeCycleCost:UsePriceEscalation= \"U.S. AVG  COMMERCIAL-DISTILLATE OIL\" has no energy cost. \n   **   ~~~   ** ... It is likely that the wrong resource is used. The resource should match the meter used in Utility:Tariff.\n   ** Warning ** The resource referenced by LifeCycleCost:UsePriceEscalation= \"U.S. AVG  COMMERCIAL-RESIDUAL OIL\" has no energy cost. \n   **   ~~~   ** ... It is likely that the wrong resource is used. The resource should match the meter used in Utility:Tariff.\n   ** Warning ** The resource referenced by LifeCycleCost:UsePriceEscalation= \"U.S. AVG  COMMERCIAL-NATURAL GAS\" has no energy cost. \n   **   ~~~   ** ... It is likely that the wrong resource is used. The resource should match the meter used in Utility:Tariff.\n   ** Warning ** The resource referenced by LifeCycleCost:UsePriceEscalation= \"U.S. AVG  COMMERCIAL-COAL\" has no energy cost. \n   **   ~~~   ** ... It is likely that the wrong resource is used. The resource should match the meter used in Utility:Tariff.\n   ************* Simulation Error Summary *************\n   ************* There are 6 unused schedules in input.\n   ************* There are 6 unused week schedules in input.\n   ************* There are 13 unused day schedules in input.\n   ************* Use Output:Diagnostics,DisplayUnusedSchedules; to see them.\n   *************\n   ************* ===== Recurring Error Summary =====\n   ************* The following recurring error messages occurred.\n   *************\n   *************  ** Warning ** CalcDoe2DXCoil: Coil:Cooling:DX:SingleSpeed=\"ZONE CORE SPACE - STORY GROUND PSZ-AC 1SPD DX AC CLG COIL 113KBTU/HR 11.0EER\" - Full load outlet temperature indicates a possibility of frost/freeze error continues. Outlet air temperature statistics follow:\n   *************  **   ~~~   **   This error occurred 546 total times;\n   *************  **   ~~~   **   during Warmup 0 times;\n   *************  **   ~~~   **   during Sizing 0 times.\n   *************  **   ~~~   **   Max=1.999525  Min=-1.503067\n   *************\n   *************\n   ************* ===== Final Error Summary =====\n   ************* The following error categories occurred.  Consider correcting or noting.\n   ************* Nominally Unused Constructions\n   ************* ..The nominally unused constructions warning is provided to alert you to potential conditions that can cause\n   ************* ..extra time during simulation. Each construction is calculated by the algorithm indicated in the HeatBalanceAlgorithm\n   ************* ..object. You may remove the constructions indicated (when you use the DisplayExtraWarnings option).\n   *************\n   ************* EnergyPlus Warmup Error Summary. During Warmup: 0 Warning; 0 Severe Errors.\n   ************* EnergyPlus Sizing Error Summary. During Sizing: 125 Warning; 0 Severe Errors.\n   ************* EnergyPlus Completed Successfully-- 700 Warning; 0 Severe Errors; Elapsed Time=00hr 03min 31.00sec\n",
  "file_format_version": "0.0.1",
  "file_paths": [
    "/mnt/openstudio/analysis_1fa4e9a5-af37-4a2f-98d1-9ebb999eef5c/data_point_ec550fc2-33ef-4fa5-8542-c8d5519417ee/generated_files",
    "../weather",
    "../seeds",
    "../seed",
    "./files",
    "./weather",
    "../../files",
    "../../weather",
    "./"
  ],
  "hash": "C642D75A",
  "measure_paths": [
    "../measures"
  ],
  "name": "DOE Autogenerated 46",
  "osa_id": "1fa4e9a5-af37-4a2f-98d1-9ebb999eef5c",
  "osd_id": "ec550fc2-33ef-4fa5-8542-c8d5519417ee",
  "run_directory": "./run",
  "seed_file": "switchglaze.osm",
  "started_at": "20200630T212452Z",
  "steps": [
    {
      "arguments": {
        "bar_division_method": "Single Space Type - Core and Perimeter",
        "bldg_type_a": "MediumOffice",
        "bldg_type_a_num_units": 1,
        "bldg_type_b": "SmallOffice",
        "bldg_type_b_fract_bldg_area": 0,
        "bldg_type_b_num_units": 1,
        "bldg_type_c": "SmallOffice",
        "bldg_type_c_fract_bldg_area": 0,
        "bldg_type_c_num_units": 1,
        "bldg_type_d": "SmallOffice",
        "bldg_type_d_fract_bldg_area": 0,
        "bldg_type_d_num_units": 1,
        "bottom_story_ground_exposed_floor": true,
        "building_rotation": 0,
        "floor_height": 0,
        "make_mid_story_surfaces_adiabatic": false,
        "ns_to_ew_ratio": 0,
        "num_stories_above_grade": 3,
        "num_stories_below_grade": 0,
        "party_wall_fraction": 0,
        "party_wall_stories_east": 0,
        "party_wall_stories_north": 0,
        "party_wall_stories_south": 0,
        "party_wall_stories_west": 0,
        "single_floor_area": 0,
        "story_multiplier": "Basements Ground Mid Top",
        "template": "90.1-2013",
        "top_story_exterior_exposed_roof": true,
        "total_bldg_floor_area": 53633,
        "use_upstream_args": false,
        "wwr": 0.4
      },
      "description": "Create a core and perimeter bar sliced by space type.",
      "measure_dir_name": "create_bar_from_building_type_ratios",
      "name": "create_bar_from_building_type_ratios",
      "result": {
        "completed_at": "20200630T212512Z",
        "measure_class_name": "CreateBarFromBuildingTypeRatios",
        "measure_display_name": "Create Bar From Building Type Ratios",
        "measure_name": "create_bar_from_building_type_ratios",
        "measure_taxonomy": "Envelope.Form",
        "measure_type": "ModelMeasure",
        "measure_uid": "6e3a14f8-c3c7-4e03-bc51-bef8a52e1a05",
        "measure_version_id": "2424b90a-9e47-41c2-a701-59473c167219",
        "measure_version_modified": "20191016T185548Z",
        "measure_xml_checksum": "2AF3A68E",
        "started_at": "20200630T212504Z",
        "stderr": "",
[...]
        "step_errors": [],
        "step_files": [],
        "step_info": [
          "Sql file not empty",
          "Generator produced DC electric energy (GJ): 23.9 (6638.49 kWh)",
          "Generator produced DC electric energy (GJ) in JAN: 0.25 GJ",
          "Generator produced DC electric energy (GJ) in FEB: 0.24 GJ",
          "Generator produced DC electric energy (GJ) in MAR: 0.28 GJ",
          "Generator produced DC electric energy (GJ) in APR: 0.46 GJ",
          "Generator produced DC electric energy (GJ) in MAY: 2.28 GJ",
          "Generator produced DC electric energy (GJ) in JUN: 4.73 GJ",
          "Generator produced DC electric energy (GJ) in JUL: 5.23 GJ",
          "Generator produced DC electric energy (GJ) in AUG: 5.28 GJ",
          "Generator produced DC electric energy (GJ) in SEP: 4.0 GJ",
          "Generator produced DC electric energy (GJ) in OCT: 0.75 GJ",
          "Generator produced DC electric energy (GJ) in NOV: 0.22 GJ",
          "Generator produced DC electric energy (GJ) in DEC: 0.19 GJ",
          "Lighting energy (GJ): 336.5 (93471.05 kWh)",
          "Lighting energy (GJ) in JAN: 28.54 GJ",
          "Lighting energy (GJ) in FEB: 25.9 GJ",
          "Lighting energy (GJ) in MAR: 29.29 GJ",
          "Lighting energy (GJ) in APR: 26.05 GJ",
          "Lighting energy (GJ) in MAY: 29.17 GJ",
          "Lighting energy (GJ) in JUN: 28.11 GJ",
          "Lighting energy (GJ) in JUL: 27.45 GJ",
          "Lighting energy (GJ) in AUG: 29.43 GJ",
          "Lighting energy (GJ) in SEP: 27.45 GJ",
          "Lighting energy (GJ) in OCT: 28.61 GJ",
          "Lighting energy (GJ) in NOV: 28.59 GJ",
          "Lighting energy (GJ) in DEC: 27.91 GJ",
          "Building electricity (GJ) in JAN: 131.19 GJ",
          "Building electricity (GJ) in FEB: 124.4 GJ",
          "Building electricity (GJ) in MAR: 145.77 GJ",
          "Building electricity (GJ) in APR: 147.81 GJ",
          "Building electricity (GJ) in MAY: 184.93 GJ",
          "Building electricity (GJ) in JUN: 196.97 GJ",
          "Building electricity (GJ) in JUL: 204.62 GJ",
          "Building electricity (GJ) in AUG: 212.84 GJ",
          "Building electricity (GJ) in SEP: 185.49 GJ",
          "Building electricity (GJ) in OCT: 167.94 GJ",
          "Building electricity (GJ) in NOV: 146.52 GJ",
          "Building electricity (GJ) in DEC: 128.52 GJ",
          "Building gas (GJ) in JAN: 8.06 GJ",
          "Building gas (GJ) in FEB: 7.16 GJ",
          "Building gas (GJ) in MAR: 7.67 GJ",
          "Building gas (GJ) in APR: 6.62 GJ",
          "Building gas (GJ) in MAY: 6.53 GJ",
          "Building gas (GJ) in JUN: 5.88 GJ",
          "Building gas (GJ) in JUL: 5.82 GJ",
          "Building gas (GJ) in AUG: 6.15 GJ",
          "Building gas (GJ) in SEP: 6.22 GJ",
          "Building gas (GJ) in OCT: 6.97 GJ",
          "Building gas (GJ) in NOV: 7.35 GJ",
          "Building gas (GJ) in DEC: 7.78 GJ",
          "Total Electricity for Building: 1977.0 GJ",
          "Total Gas for Building: 82.21 GJ"
        ],
        "step_result": "Success",
        "step_values": [
          {
            "name": "total_pv",
            "units": "GJ",
            "value": 23.898529
          },
          {
            "name": "panel_dc_gen_jan",
            "units": "GJ",
            "value": 0.25
          },
          {
            "name": "panel_dc_gen_feb",
            "units": "GJ",
            "value": 0.24
          },
          {
            "name": "panel_dc_gen_mar",
            "units": "GJ",
            "value": 0.28
          },
          {
            "name": "panel_dc_gen_apr",
            "units": "GJ",
            "value": 0.46
          },
          {
            "name": "panel_dc_gen_may",
            "units": "GJ",
            "value": 2.28
          },
          {
            "name": "panel_dc_gen_jun",
            "units": "GJ",
            "value": 4.73
          },
          {
            "name": "panel_dc_gen_jul",
            "units": "GJ",
            "value": 5.23
          },
          {
            "name": "panel_dc_gen_aug",
            "units": "GJ",
            "value": 5.28
          },
          {
            "name": "panel_dc_gen_sep",
            "units": "GJ",
            "value": 4
          },
          {
            "name": "panel_dc_gen_oct",
            "units": "GJ",
            "value": 0.75
          },
          {
            "name": "panel_dc_gen_nov",
            "units": "GJ",
            "value": 0.22
          },
          {
            "name": "panel_dc_gen_dec",
            "units": "GJ",
            "value": 0.19
          },
          {
            "name": "light_energy",
            "units": "GJ",
            "value": 336.495511
          },
          {
            "name": "light_energy_jan",
            "units": "GJ",
            "value": 28.54
          },
          {
            "name": "light_energy_feb",
            "units": "GJ",
            "value": 25.9
          },
          {
            "name": "light_energy_mar",
            "units": "GJ",
            "value": 29.29
          },
          {
            "name": "light_energy_apr",
            "units": "GJ",
            "value": 26.05
          },
          {
            "name": "light_energy_may",
            "units": "GJ",
            "value": 29.17
          },
          {
            "name": "light_energy_jun",
            "units": "GJ",
            "value": 28.11
          },
          {
            "name": "light_energy_jul",
            "units": "GJ",
            "value": 27.45
          },
          {
            "name": "light_energy_aug",
            "units": "GJ",
            "value": 29.43
          },
          {
            "name": "light_energy_sep",
            "units": "GJ",
            "value": 27.45
          },
          {
            "name": "light_energy_oct",
            "units": "GJ",
            "value": 28.61
          },
          {
            "name": "light_energy_nov",
            "units": "GJ",
            "value": 28.59
          },
          {
            "name": "light_energy_dec",
            "units": "GJ",
            "value": 27.91
          },
          {
            "name": "building_elec_jan",
            "units": "GJ",
            "value": 131.19
          },
          {
            "name": "building_elec_feb",
            "units": "GJ",
            "value": 124.4
          },
          {
            "name": "building_elec_mar",
            "units": "GJ",
            "value": 145.77
          },
          {
            "name": "building_elec_apr",
            "units": "GJ",
            "value": 147.81
          },
          {
            "name": "building_elec_may",
            "units": "GJ",
            "value": 184.93
          },
          {
            "name": "building_elec_jun",
            "units": "GJ",
            "value": 196.97
          },
          {
            "name": "building_elec_jul",
            "units": "GJ",
            "value": 204.62
          },
          {
            "name": "building_elec_aug",
            "units": "GJ",
            "value": 212.84
          },
          {
            "name": "building_elec_sep",
            "units": "GJ",
            "value": 185.49
          },
          {
            "name": "building_elec_oct",
            "units": "GJ",
            "value": 167.94
          },
          {
            "name": "building_elec_nov",
            "units": "GJ",
            "value": 146.52
          },
          {
            "name": "building_elec_dec",
            "units": "GJ",
            "value": 128.52
          },
          {
            "name": "building_gas_jan",
            "units": "GJ",
            "value": 8.06
          },
          {
            "name": "building_gas_feb",
            "units": "GJ",
            "value": 7.16
          },
          {
            "name": "building_gas_mar",
            "units": "GJ",
            "value": 7.67
          },
          {
            "name": "building_gas_apr",
            "units": "GJ",
            "value": 6.62
          },
          {
            "name": "building_gas_may",
            "units": "GJ",
            "value": 6.53
          },
          {
            "name": "building_gas_jun",
            "units": "GJ",
            "value": 5.88
          },
          {
            "name": "building_gas_jul",
            "units": "GJ",
            "value": 5.82
          },
          {
            "name": "building_gas_aug",
            "units": "GJ",
            "value": 6.15
          },
          {
            "name": "building_gas_sep",
            "units": "GJ",
            "value": 6.22
          },
          {
            "name": "building_gas_oct",
            "units": "GJ",
            "value": 6.97
          },
          {
            "name": "building_gas_nov",
            "units": "GJ",
            "value": 7.35
          },
          {
            "name": "building_gas_dec",
            "units": "GJ",
            "value": 7.78
          },
          {
            "name": "building_area_ft",
            "units": "ft^2",
            "value": 53633
          },
          {
            "name": "capacity_factor",
            "units": "%",
            "value": 0.095489
          },
          {
            "name": "total_electricity",
            "units": "GJ",
            "value": 1977
          },
          {
            "name": "total_electricity_heating",
            "units": "GJ",
            "value": 0
          },
          {
            "name": "total_electricity_cooling",
            "units": "GJ",
            "value": 607.22998
          },
          {
            "name": "total_electricity_lighting",
            "units": "GJ",
            "value": 336.5
          },
          {
            "name": "total_gas",
            "units": "GJ",
            "value": 82.209999
          },
          {
            "name": "total_gas_heating",
            "units": "GJ",
            "value": 4.82
          }
        ],
        "step_warnings": []
      }
    },
    {
      "arguments": {
        "Sizing Run Directories": true,
        "audit": true,
        "bnd": true,
        "csv": true,
        "eio": true,
        "eso": true,
        "idf": false,
        "mdd": true,
        "osm": true,
        "rdd": true,
        "shd": true,
        "sql": true
      },
      "description": "Removes a significant portion of the saved results from each run, helping to alleviate memory problems.",
      "measure_dir_name": "ServerDirectoryCleanup",
      "name": "server_directory_cleanup",
      "result": {
        "completed_at": "20200630T212935Z",
        "measure_class_name": "ServerDirectoryCleanup",
        "measure_display_name": "Server Directory Cleanup",
        "measure_name": "server_directory_cleanup",
        "measure_taxonomy": "Calibration",
        "measure_type": "ReportingMeasure",
        "measure_uid": "ec7d04ad-0b7b-495b-825a-e1b6d28d1d3f",
        "measure_version_id": "636bd688-3bd1-439e-899f-507e09692c6e",
        "measure_version_modified": "20191223T153859Z",
        "measure_xml_checksum": "5F1EDF75",
        "started_at": "20200630T212935Z",
        "stderr": "",
        "stdout": "",
        "step_errors": [],
        "step_files": [],
        "step_final_condition": "The following files were in the local run directory following to the execution of this measure: eplusout.end, in.idf, eplusout.mtr, eplusout.mtd, 004_AddOutputVariable, 001_ChangeBuildingLocation, 008_AddOutputVariable, .., 006_AddOutputVariable, run.log, 012_a_inject_window_specific_idf_objects, sqlite.err, stdout-energyplus, 005_AddOutputVariable, 013_ServerDirectoryCleanup, 009_AddMeter, 013_WindowPV_reporting, pre-preprocess.idf, 002_create_typical_building_from_model, in.epw, 011_add_thermochromic_bipv, 010_AddMeter, measure_attributes.json, 000_create_bar_from_building_type_ratios, eplusout.err, 014_ServerDirectoryCleanup, 007_AddOutputVariable, stdout-expandobject, eplustbl.htm, 003_AddOutputVariable, started.job, ..",
        "step_info": [
          "Deleted ./../eplusout.sql from the run directory.",
          "Deleted ./../eplusout.eso from the run directory.",
          "Deleted ./../eplusout.audit from the run directory.",
          "Deleted ./../in.osm from the run directory.",
          "Deleted ./../eplusout.bnd from the run directory.",
          "Deleted ./../eplusout.eio from the run directory.",
          "Deleted ./../eplusout.shd from the run directory.",
          "Deleted ./../eplusout.mdd from the run directory.",
          "Deleted ./../eplusout.rdd from the run directory.",
          "Deleted ./../epluszsz.csv from the run directory.",
          "Deleted ./../eplusssz.csv from the run directory."
        ],
        "step_initial_condition": "The following files were in the local run directory prior to the execution of this measure: eplusout.end, in.idf, eplusout.mtr, eplusout.mtd, 004_AddOutputVariable, epluszsz.csv, 001_ChangeBuildingLocation, 008_AddOutputVariable, eplusout.mdd, .., 006_AddOutputVariable, run.log, 012_a_inject_window_specific_idf_objects, in.osm, sqlite.err, stdout-energyplus, 005_AddOutputVariable, 013_ServerDirectoryCleanup, 009_AddMeter, 013_WindowPV_reporting, eplusout.rdd, pre-preprocess.idf, 002_create_typical_building_from_model, in.epw, eplusout.shd, 011_add_thermochromic_bipv, 010_AddMeter, measure_attributes.json, 000_create_bar_from_building_type_ratios, eplusout.err, 014_ServerDirectoryCleanup, eplusout.eso, 007_AddOutputVariable, stdout-expandobject, eplusout.bnd, eplusout.sql, eplusout.eio, eplustbl.htm, 003_AddOutputVariable, eplusssz.csv, started.job, ., eplusout.audit.",
        "step_result": "Success",
        "step_values": [
          {
            "name": "sql",
            "value": true
          },
          {
            "name": "eso",
            "value": true
          },
          {
            "name": "audit",
            "value": true
          },
          {
            "name": "osm",
            "value": true
          },
          {
            "name": "idf",
            "value": false
          },
          {
            "name": "bnd",
            "value": true
          },
          {
            "name": "eio",
            "value": true
          },
          {
            "name": "shd",
            "value": true
          },
          {
            "name": "mdd",
            "value": true
          },
          {
            "name": "rdd",
            "value": true
          },
          {
            "name": "csv",
            "value": true
          },
          {
            "name": "Sizing Run Directories",
            "value": true
          }
        ],
        "step_warnings": []
      }
    }
  ],
  "updated_at": "20200630T212937Z",
  "weather_file": "DEU_Hamburg.101470_IWEC.epw"
}