{
  "completed_at": "20200630T213214Z",
  "completed_status": "Success",
  "created_at": "2020-06-30 21:28:26 +0000",
  "current_step": 15,
  "description": "",
  "eplusout_err": "Program Version,EnergyPlus, Version 9.2.0-921312fa1d, YMD=2020.06.30 21:29,\n   ************* Beginning Zone Sizing Calculations\n   ** Warning ** ProcessScheduleInput: Schedule:Day:Interval=\"SCHEDULE DAY 2\", Blank Schedule Type Limits Name input -- will not be validated.\n   ** Warning ** ProcessScheduleInput: Schedule:Day:Interval=\"SCHEDULE DAY 3\", Blank Schedule Type Limits Name input -- will not be validated.\n   ** Warning ** ProcessScheduleInput: Schedule:Constant=\"ALWAYS OFF DISCRETE\", Blank Schedule Type Limits Name input -- will not be validated.\n   ** Warning ** ProcessScheduleInput: Schedule:Constant=\"ALWAYS ON CONTINUOUS\", Blank Schedule Type Limits Name input -- will not be validated.\n   ** Warning ** Shading:Zone:Detailed=\"PV - SUB SURFACE 3\", Base Surface Name=\"SURFACE 14\", is always transparent.\n   ** Warning ** Shading:Zone:Detailed=\"PV - SUB SURFACE 7\", Base Surface Name=\"SURFACE 44\", is always transparent.\n   ** Warning ** Shading:Zone:Detailed=\"PV - SUB SURFACE 11\", Base Surface Name=\"SURFACE 74\", is always transparent.\n   ** Warning ** Shading:Zone:Detailed=\"PV - SUB SURFACE 4\", Base Surface Name=\"SURFACE 20\", is always transparent.\n   ** Warning ** Shading:Zone:Detailed=\"PV - SUB SURFACE 8\", Base Surface Name=\"SURFACE 50\", is always transparent.\n   ** Warning ** Shading:Zone:Detailed=\"PV - SUB SURFACE 12\", Base Surface Name=\"SURFACE 80\", is always transparent.\n   ** Warning ** Shading:Zone:Detailed=\"PV - SUB SURFACE 1\", Base Surface Name=\"SURFACE 2\", is always transparent.\n   ** Warning ** Shading:Zone:Detailed=\"PV - SUB SURFACE 5\", Base Surface Name=\"SURFACE 32\", is always transparent.\n   ** Warning ** Shading:Zone:Detailed=\"PV - SUB SURFACE 9\", Base Surface Name=\"SURFACE 62\", is always transparent.\n   ** Warning ** CheckUsedConstructions: There are 10 nominally unused constructions in input.\n   **   ~~~   ** For explicit details on each unused construction, use Output:Diagnostics,DisplayExtraWarnings;\n   ** Warning ** GetInternalHeatGains: People=\"OFFICE WHOLEBUILDING - MD OFFICE 1 PEOPLE\" has comfort related schedules but no thermal comfort model selected.\n   **   ~~~   ** If schedules are specified for air velocity, clothing insulation, and/or work efficiency but no thermal comfort\n   **   ~~~   ** thermal comfort model is selected, the schedules will be listed as unused schedules in the .err file.\n   **   ~~~   ** To avoid these errors, select a valid thermal comfort model or eliminate these schedules in the PEOPLE input.\n   ** Warning ** GetInternalHeatGains: People=\"OFFICE WHOLEBUILDING - MD OFFICE 1 PEOPLE\" has comfort related schedules but no thermal comfort model selected.\n   **   ~~~   ** If schedules are specified for air velocity, clothing insulation, and/or work efficiency but no thermal comfort\n   **   ~~~   ** thermal comfort model is selected, the schedules will be listed as unused schedules in the .err file.\n   **   ~~~   ** To avoid these errors, select a valid thermal comfort model or eliminate these schedules in the PEOPLE input.\n   ** Warning ** GetInternalHeatGains: People=\"OFFICE WHOLEBUILDING - MD OFFICE 1 PEOPLE\" has comfort related schedules but no thermal comfort model selected.\n   **   ~~~   ** If schedules are specified for air velocity, clothing insulation, and/or work efficiency but no thermal comfort\n   **   ~~~   ** thermal comfort model is selected, the schedules will be listed as unused schedules in the .err file.\n   **   ~~~   ** To avoid these errors, select a valid thermal comfort model or eliminate these schedules in the PEOPLE input.\n   ** Warning ** GetInternalHeatGains: People=\"OFFICE WHOLEBUILDING - MD OFFICE 1 PEOPLE\" has comfort related schedules but no thermal comfort model selected.\n   **   ~~~   ** If schedules are specified for air velocity, clothing insulation, and/or work efficiency but no thermal comfort\n   **   ~~~   ** thermal comfort model is selected, the schedules will be listed as unused schedules in the .err file.\n   **   ~~~   ** To avoid these errors, select a valid thermal comfort model or eliminate these schedules in the PEOPLE input.\n   ** Warning ** GetInternalHeatGains: People=\"OFFICE WHOLEBUILDING - MD OFFICE 1 PEOPLE\" has comfort related schedules but no thermal comfort model selected.\n   **   ~~~   ** If schedules are specified for air velocity, clothing insulation, and/or work efficiency but no thermal comfort\n   **   ~~~   ** thermal comfort model is selected, the schedules will be listed as unused schedules in the .err file.\n   **   ~~~   ** To avoid these errors, select a valid thermal comfort model or eliminate these schedules in the PEOPLE input.\n   ** Warning ** GetInternalHeatGains: People=\"OFFICE WHOLEBUILDING - MD OFFICE 1 PEOPLE\" has comfort related schedules but no thermal comfort model selected.\n   **   ~~~   ** If schedules are specified for air velocity, clothing insulation, and/or work efficiency but no thermal comfort\n   **   ~~~   ** thermal comfort model is selected, the schedules will be listed as unused schedules in the .err file.\n   **   ~~~   ** To avoid these errors, select a valid thermal comfort model or eliminate these schedules in the PEOPLE input.\n   ** Warning ** GetInternalHeatGains: People=\"OFFICE WHOLEBUILDING - MD OFFICE 1 PEOPLE\" has comfort related schedules but no thermal comfort model selected.\n   **   ~~~   ** If schedules are specified for air velocity, clothing insulation, and/or work efficiency but no thermal comfort\n   **   ~~~   ** thermal comfort model is selected, the schedules will be listed as unused schedules in the .err file.\n   **   ~~~   ** To avoid these errors, select a valid thermal comfort model or eliminate these schedules in the PEOPLE input.\n   ** Warning ** GetInternalHeatGains: People=\"OFFICE WHOLEBUILDING - MD OFFICE 1 PEOPLE\" has comfort related schedules but no thermal comfort model selected.\n   **   ~~~   ** If schedules are specified for air velocity, clothing insulation, and/or work efficiency but no thermal comfort\n   **   ~~~   ** thermal comfort model is selected, the schedules will be listed as unused schedules in the .err file.\n   **   ~~~   ** To avoid these errors, select a valid thermal comfort model or eliminate these schedules in the PEOPLE input.\n   ** Warning ** GetInternalHeatGains: People=\"OFFICE WHOLEBUILDING - MD OFFICE 1 PEOPLE\" has comfort related schedules but no thermal comfort model selected.\n   **   ~~~   ** If schedules are specified for air velocity, clothing insulation, and/or work efficiency but no thermal comfort\n   **   ~~~   ** thermal comfort model is selected, the schedules will be listed as unused schedules in the .err file.\n   **   ~~~   ** To avoid these errors, select a valid thermal comfort model or eliminate these schedules in the PEOPLE input.\n   ** Warning ** GetInternalHeatGains: People=\"OFFICE WHOLEBUILDING - MD OFFICE 1 PEOPLE\" has comfort related schedules but no thermal comfort model selected.\n   **   ~~~   ** If schedules are specified for air velocity, clothing insulation, and/or work efficiency but no thermal comfort\n   **   ~~~   ** thermal comfort model is selected, the schedules will be listed as unused schedules in the .err file.\n   **   ~~~   ** To avoid these errors, select a valid thermal comfort model or eliminate these schedules in the PEOPLE input.\n   ** Warning ** GetInternalHeatGains: People=\"OFFICE WHOLEBUILDING - MD OFFICE 1 PEOPLE\" has comfort related schedules but no thermal comfort model selected.\n   **   ~~~   ** If schedules are specified for air velocity, clothing insulation, and/or work efficiency but no thermal comfort\n   **   ~~~   ** thermal comfort model is selected, the schedules will be listed as unused schedules in the .err file.\n   **   ~~~   ** To avoid these errors, select a valid thermal comfort model or eliminate these schedules in the PEOPLE input.\n   ** Warning ** GetInternalHeatGains: People=\"OFFICE WHOLEBUILDING - MD OFFICE 1 PEOPLE\" has comfort related schedules but no thermal comfort model selected.\n   **   ~~~   ** If schedules are specified for air velocity, clothing insulation, and/or work efficiency but no thermal comfort\n   **   ~~~   ** thermal comfort model is selected, the schedules will be listed as unused schedules in the .err file.\n   **   ~~~   ** To avoid these errors, select a valid thermal comfort model or eliminate these schedules in the PEOPLE input.\n   ** Warning ** GetInternalHeatGains: People=\"OFFICE WHOLEBUILDING - MD OFFICE 1 PEOPLE\" has comfort related schedules but no thermal comfort model selected.\n   **   ~~~   ** If schedules are specified for air velocity, clothing insulation, and/or work efficiency but no thermal comfort\n   **   ~~~   ** thermal comfort model is selected, the schedules will be listed as unused schedules in the .err file.\n   **   ~~~   ** To avoid these errors, select a valid thermal comfort model or eliminate these schedules in the PEOPLE input.\n   ** Warning ** GetInternalHeatGains: People=\"OFFICE WHOLEBUILDING - MD OFFICE 1 PEOPLE\" has comfort related schedules but no thermal comfort model selected.\n   **   ~~~   ** If schedules are specified for air velocity, clothing insulation, and/or work efficiency but no thermal comfort\n   **   ~~~   ** thermal comfort model is selected, the schedules will be listed as unused schedules in the .err file.\n   **   ~~~   ** To avoid these errors, select a valid thermal comfort model or eliminate these schedules in the PEOPLE input.\n   ** Warning ** GetInternalHeatGains: People=\"OFFICE WHOLEBUILDING - MD OFFICE 1 PEOPLE\" has comfort related schedules but no thermal comfort model selected.\n   **   ~~~   ** If schedules are specified for air velocity, clothing insulation, and/or work efficiency but no thermal comfort\n   **   ~~~   ** thermal comfort model is selected, the schedules will be listed as unused schedules in the .err file.\n   **   ~~~   ** To avoid these errors, select a valid thermal comfort model or eliminate these schedules in the PEOPLE input.\n   ** Warning ** GetDaylightingControls: Fraction of Zone controlled by the Daylighting reference points is < 1.0.\n   **   ~~~   ** ..discovered in \"Daylighting:Controls\" for Zone=\"ZONE EAST PERIMETER SPACE - STORY GROUND\", only 0.52 of the zone is controlled.\n   ** Warning ** GetDaylightingControls: Fraction of Zone controlled by the Daylighting reference points is < 1.0.\n   **   ~~~   ** ..discovered in \"Daylighting:Controls\" for Zone=\"ZONE EAST PERIMETER SPACE - STORY MID\", only 0.52 of the zone is controlled.\n   ** Warning ** GetDaylightingControls: Fraction of Zone controlled by the Daylighting reference points is < 1.0.\n   **   ~~~   ** ..discovered in \"Daylighting:Controls\" for Zone=\"ZONE EAST PERIMETER SPACE - STORY TOP\", only 0.52 of the zone is controlled.\n   ** Warning ** GetDaylightingControls: Fraction of Zone controlled by the Daylighting reference points is < 1.0.\n   **   ~~~   ** ..discovered in \"Daylighting:Controls\" for Zone=\"ZONE NORTH PERIMETER SPACE - STORY GROUND\", only 0.51 of the zone is controlled.\n   ** Warning ** GetDaylightingControls: Fraction of Zone controlled by the Daylighting reference points is < 1.0.\n   **   ~~~   ** ..discovered in \"Daylighting:Controls\" for Zone=\"ZONE NORTH PERIMETER SPACE - STORY MID\", only 0.51 of the zone is controlled.\n   ** Warning ** GetDaylightingControls: Fraction of Zone controlled by the Daylighting reference points is < 1.0.\n   **   ~~~   ** ..discovered in \"Daylighting:Controls\" for Zone=\"ZONE NORTH PERIMETER SPACE - STORY TOP\", only 0.51 of the zone is controlled.\n   ** Warning ** GetDaylightingControls: Fraction of Zone controlled by the Daylighting reference points is < 1.0.\n   **   ~~~   ** ..discovered in \"Daylighting:Controls\" for Zone=\"ZONE SOUTH PERIMETER SPACE - STORY GROUND\", only 0.51 of the zone is controlled.\n   ** Warning ** GetDaylightingControls: Fraction of Zone controlled by the Daylighting reference points is < 1.0.\n   **   ~~~   ** ..discovered in \"Daylighting:Controls\" for Zone=\"ZONE SOUTH PERIMETER SPACE - STORY MID\", only 0.51 of the zone is controlled.\n   ** Warning ** GetDaylightingControls: Fraction of Zone controlled by the Daylighting reference points is < 1.0.\n   **   ~~~   ** ..discovered in \"Daylighting:Controls\" for Zone=\"ZONE SOUTH PERIMETER SPACE - STORY TOP\", only 0.51 of the zone is controlled.\n   ** Warning ** GetDaylightingControls: Fraction of Zone controlled by the Daylighting reference points is < 1.0.\n   **   ~~~   ** ..discovered in \"Daylighting:Controls\" for Zone=\"ZONE WEST PERIMETER SPACE - STORY GROUND\", only 0.52 of the zone is controlled.\n   ** Warning ** GetDaylightingControls: Fraction of Zone controlled by the Daylighting reference points is < 1.0.\n   **   ~~~   ** ..discovered in \"Daylighting:Controls\" for Zone=\"ZONE WEST PERIMETER SPACE - STORY MID\", only 0.52 of the zone is controlled.\n   ** Warning ** GetDaylightingControls: Fraction of Zone controlled by the Daylighting reference points is < 1.0.\n   **   ~~~   ** ..discovered in \"Daylighting:Controls\" for Zone=\"ZONE WEST PERIMETER SPACE - STORY TOP\", only 0.52 of the zone is controlled.\n   ************* Beginning System Sizing Calculations\n   ************* Beginning Plant Sizing Calculations\n   ** Warning ** The Standard Ratings is calculated for Coil:Cooling:DX:SingleSpeed = ZONE CORE SPACE - STORY GROUND PSZ-AC 1SPD DX AC CLG COIL 89KBTU/HR 11.0EER but not at the AHRI test condition due to curve out of bound.\n   **   ~~~   **  Review the Standard Ratings calculations in the Engineering Reference for this coil type. Also, use Output:Diagnostics, DisplayExtraWarnings for further guidance.\n   ** Warning ** The Standard Ratings is calculated for Coil:Cooling:DX:SingleSpeed = ZONE CORE SPACE - STORY MID PSZ-AC 1SPD DX AC CLG COIL 129KBTU/HR 11.0EER but not at the AHRI test condition due to curve out of bound.\n   **   ~~~   **  Review the Standard Ratings calculations in the Engineering Reference for this coil type. Also, use Output:Diagnostics, DisplayExtraWarnings for further guidance.\n   ** Warning ** The Standard Ratings is calculated for Coil:Cooling:DX:SingleSpeed = ZONE CORE SPACE - STORY TOP PSZ-AC 1SPD DX AC CLG COIL 143KBTU/HR 10.8EER but not at the AHRI test condition due to curve out of bound.\n   **   ~~~   **  Review the Standard Ratings calculations in the Engineering Reference for this coil type. Also, use Output:Diagnostics, DisplayExtraWarnings for further guidance.\n   ** Warning ** The Standard Ratings is calculated for Coil:Cooling:DX:SingleSpeed = ZONE EAST PERIMETER SPACE - STORY GROUND PSZ-AC 1SPD DX AC CLG COIL 52KBTU/HR 14.0SEER but not at the AHRI test condition due to curve out of bound.\n   **   ~~~   **  Review the Standard Ratings calculations in the Engineering Reference for this coil type. Also, use Output:Diagnostics, DisplayExtraWarnings for further guidance.\n   ** Warning ** The Standard Ratings is calculated for Coil:Cooling:DX:SingleSpeed = ZONE EAST PERIMETER SPACE - STORY MID PSZ-AC 1SPD DX AC CLG COIL 62KBTU/HR 14.0SEER but not at the AHRI test condition due to curve out of bound.\n   **   ~~~   **  Review the Standard Ratings calculations in the Engineering Reference for this coil type. Also, use Output:Diagnostics, DisplayExtraWarnings for further guidance.\n   ** Warning ** The Standard Ratings is calculated for Coil:Cooling:DX:SingleSpeed = ZONE EAST PERIMETER SPACE - STORY TOP PSZ-AC 1SPD DX AC CLG COIL 71KBTU/HR 11.0EER but not at the AHRI test condition due to curve out of bound.\n   **   ~~~   **  Review the Standard Ratings calculations in the Engineering Reference for this coil type. Also, use Output:Diagnostics, DisplayExtraWarnings for further guidance.\n   ** Warning ** The Standard Ratings is calculated for Coil:Cooling:DX:SingleSpeed = ZONE NORTH PERIMETER SPACE - STORY GROUND PSZ-AC 1SPD DX AC CLG COIL 29KBTU/HR 14.0SEER but not at the AHRI test condition due to curve out of bound.\n   **   ~~~   **  Review the Standard Ratings calculations in the Engineering Reference for this coil type. Also, use Output:Diagnostics, DisplayExtraWarnings for further guidance.\n   ** Warning ** The Standard Ratings is calculated for Coil:Cooling:DX:SingleSpeed = ZONE NORTH PERIMETER SPACE - STORY MID PSZ-AC 1SPD DX AC CLG COIL 38KBTU/HR 14.0SEER but not at the AHRI test condition due to curve out of bound.\n   **   ~~~   **  Review the Standard Ratings calculations in the Engineering Reference for this coil type. Also, use Output:Diagnostics, DisplayExtraWarnings for further guidance.\n   ** Warning ** The Standard Ratings is calculated for Coil:Cooling:DX:SingleSpeed = ZONE NORTH PERIMETER SPACE - STORY TOP PSZ-AC 1SPD DX AC CLG COIL 42KBTU/HR 14.0SEER but not at the AHRI test condition due to curve out of bound.\n   **   ~~~   **  Review the Standard Ratings calculations in the Engineering Reference for this coil type. Also, use Output:Diagnostics, DisplayExtraWarnings for further guidance.\n   ** Warning ** The Standard Ratings is calculated for Coil:Cooling:DX:SingleSpeed = ZONE SOUTH PERIMETER SPACE - STORY GROUND PSZ-AC 1SPD DX AC CLG COIL 78KBTU/HR 11.0EER but not at the AHRI test condition due to curve out of bound.\n   **   ~~~   **  Review the Standard Ratings calculations in the Engineering Reference for this coil type. Also, use Output:Diagnostics, DisplayExtraWarnings for further guidance.\n   ** Warning ** The Standard Ratings is calculated for Coil:Cooling:DX:SingleSpeed = ZONE SOUTH PERIMETER SPACE - STORY MID PSZ-AC 1SPD DX AC CLG COIL 93KBTU/HR 11.0EER but not at the AHRI test condition due to curve out of bound.\n   **   ~~~   **  Review the Standard Ratings calculations in the Engineering Reference for this coil type. Also, use Output:Diagnostics, DisplayExtraWarnings for further guidance.\n   ** Warning ** The Standard Ratings is calculated for Coil:Cooling:DX:SingleSpeed = ZONE SOUTH PERIMETER SPACE - STORY TOP PSZ-AC 1SPD DX AC CLG COIL 109KBTU/HR 11.0EER but not at the AHRI test condition due to curve out of bound.\n   **   ~~~   **  Review the Standard Ratings calculations in the Engineering Reference for this coil type. Also, use Output:Diagnostics, DisplayExtraWarnings for further guidance.\n   ** Warning ** The Standard Ratings is calculated for Coil:Cooling:DX:SingleSpeed = ZONE WEST PERIMETER SPACE - STORY GROUND PSZ-AC 1SPD DX AC CLG COIL 52KBTU/HR 14.0SEER but not at the AHRI test condition due to curve out of bound.\n   **   ~~~   **  Review the Standard Ratings calculations in the Engineering Reference for this coil type. Also, use Output:Diagnostics, DisplayExtraWarnings for further guidance.\n   ** Warning ** The Standard Ratings is calculated for Coil:Cooling:DX:SingleSpeed = ZONE WEST PERIMETER SPACE - STORY MID PSZ-AC 1SPD DX AC CLG COIL 61KBTU/HR 14.0SEER but not at the AHRI test condition due to curve out of bound.\n   **   ~~~   **  Review the Standard Ratings calculations in the Engineering Reference for this coil type. Also, use Output:Diagnostics, DisplayExtraWarnings for further guidance.\n   ** Warning ** The Standard Ratings is calculated for Coil:Cooling:DX:SingleSpeed = ZONE WEST PERIMETER SPACE - STORY TOP PSZ-AC 1SPD DX AC CLG COIL 72KBTU/HR 11.0EER but not at the AHRI test condition due to curve out of bound.\n   **   ~~~   **  Review the Standard Ratings calculations in the Engineering Reference for this coil type. Also, use Output:Diagnostics, DisplayExtraWarnings for further guidance.\n   ** Warning ** SizePlantLoop: Calculated Plant Sizing Design Volume Flow Rate=[0.00] is too small. Set to 0.0\n   **   ~~~   ** ..occurs for PlantLoop=HOT WATER LOOP\n   ** Warning ** SizePump: Calculated Pump Nominal Volume Flow Rate=[0.00] is too small. Set to 0.0\n   **   ~~~   ** ..occurs for Pump=HOT WATER LOOP PUMP\n   ** Warning ** Check input. Pump nominal power or motor efficiency is set to 0, for pump=HOT WATER LOOP PUMP\n   ** Warning ** Check input. Pump nominal flow rate is set or calculated = 0, for pump=HOT WATER LOOP PUMP\n   ** Warning ** Missing temperature setpoint for LeavingSetpointModulated mode Boiler named BOILER\n   **   ~~~   **   A temperature setpoint is needed at the outlet node of a boiler in variable flow mode\n   **   ~~~   **   use a Setpoint Manager to establish a setpoint at the boiler outlet node \n   **   ~~~   **   or use an EMS actuator to establish a setpoint at the boiler outlet node \n   **   ~~~   **   The overall loop setpoint will be assumed for Boiler. The simulation continues ... \n   ** Warning ** Output:Meter: invalid Key Name=\"DISTRICTCOOLING:FACILITY\" - not found.\n   ** Warning ** Output:Meter: invalid Key Name=\"DISTRICTHEATING:FACILITY\" - not found.\n   ** Warning ** Output:Meter:MeterFileOnly requested for \"Electricity:Facility\" (TimeStep), already on \"Output:Meter\". Will report to both eplusout.eso and eplusout.mtr\n   ************* Testing Individual Branch Integrity\n   ************* All Branches passed integrity testing\n   ************* Testing Individual Supply Air Path Integrity\n   ************* All Supply Air Paths passed integrity testing\n   ************* Testing Individual Return Air Path Integrity\n   ************* All Return Air Paths passed integrity testing\n   ************* No node connection errors were found.\n   ************* Beginning Simulation\n   ** Warning ** Processing Monthly Tabular Reports: Variable names not valid for this simulation\n   **   ~~~   ** ...use Output:Diagnostics,DisplayExtraWarnings; to show more details on individual variables.\n   ** Warning ** CalcDoe2DXCoil: Coil:Cooling:DX:SingleSpeed \"ZONE NORTH PERIMETER SPACE - STORY MID PSZ-AC 1SPD DX AC CLG COIL 38KBTU/HR 14.0SEER\" - Air-cooled condenser inlet dry-bulb temperature below 0 C. Outdoor dry-bulb temperature = -14.85\n   **   ~~~   **  ... Occurrence info = RUN PERIOD 1, 01/01 00:10 - 00:12\n   **   ~~~   ** ... Operation at low ambient temperatures may require special performance curves.\n   ** Warning ** CalcDoe2DXCoil: Coil:Cooling:DX:SingleSpeed \"ZONE NORTH PERIMETER SPACE - STORY TOP PSZ-AC 1SPD DX AC CLG COIL 42KBTU/HR 14.0SEER\" - Air-cooled condenser inlet dry-bulb temperature below 0 C. Outdoor dry-bulb temperature = -14.85\n   **   ~~~   **  ... Occurrence info = RUN PERIOD 1, 01/01 00:10 - 00:12\n   **   ~~~   ** ... Operation at low ambient temperatures may require special performance curves.\n   ** Warning ** CalcDoe2DXCoil: Coil:Cooling:DX:SingleSpeed \"ZONE EAST PERIMETER SPACE - STORY GROUND PSZ-AC 1SPD DX AC CLG COIL 52KBTU/HR 14.0SEER\" - Air-cooled condenser inlet dry-bulb temperature below 0 C. Outdoor dry-bulb temperature = -14.85\n   **   ~~~   **  ... Occurrence info = RUN PERIOD 1, 01/01 00:12 - 00:15\n   **   ~~~   ** ... Operation at low ambient temperatures may require special performance curves.\n   ** Warning ** CalcDoe2DXCoil: Coil:Cooling:DX:SingleSpeed \"ZONE NORTH PERIMETER SPACE - STORY GROUND PSZ-AC 1SPD DX AC CLG COIL 29KBTU/HR 14.0SEER\" - Air-cooled condenser inlet dry-bulb temperature below 0 C. Outdoor dry-bulb temperature = -14.85\n   **   ~~~   **  ... Occurrence info = RUN PERIOD 1, 01/01 00:12 - 00:15\n   **   ~~~   ** ... Operation at low ambient temperatures may require special performance curves.\n   ** Warning ** CalcDoe2DXCoil: Coil:Cooling:DX:SingleSpeed \"ZONE WEST PERIMETER SPACE - STORY GROUND PSZ-AC 1SPD DX AC CLG COIL 52KBTU/HR 14.0SEER\" - Air-cooled condenser inlet dry-bulb temperature below 0 C. Outdoor dry-bulb temperature = -14.85\n   **   ~~~   **  ... Occurrence info = RUN PERIOD 1, 01/01 00:12 - 00:15\n   **   ~~~   ** ... Operation at low ambient temperatures may require special performance curves.\n   ** Warning ** HeatExchanger:AirToAir:SensibleAndLatent \"ZONE CORE SPACE - STORY TOP PSZ-AC ERV\"\n   **   ~~~   ** Average air volume flow rate is <50% or >130% of the nominal HX supply air volume flow rate.\n   **   ~~~   ** Air volume flow rate ratio = 6.344. Environment=RUN PERIOD 1, at Simulation time=01/01 00:34 - 00:38\n   ** Warning ** HeatExchanger:AirToAir:SensibleAndLatent \"ZONE CORE SPACE - STORY MID PSZ-AC ERV\"\n   **   ~~~   ** Average air volume flow rate is <50% or >130% of the nominal HX supply air volume flow rate.\n   **   ~~~   ** Air volume flow rate ratio = 5.632. Environment=RUN PERIOD 1, at Simulation time=01/02 05:00 - 05:15\n   ** Warning ** HeatExchanger:AirToAir:SensibleAndLatent \"ZONE CORE SPACE - STORY GROUND PSZ-AC ERV\"\n   **   ~~~   ** Average air volume flow rate is <50% or >130% of the nominal HX supply air volume flow rate.\n   **   ~~~   ** Air volume flow rate ratio = 3.952. Environment=RUN PERIOD 1, at Simulation time=01/02 06:00 - 06:15\n   ** Warning ** CalcDoe2DXCoil: Coil:Cooling:DX:SingleSpeed \"ZONE NORTH PERIMETER SPACE - STORY MID PSZ-AC 1SPD DX AC CLG COIL 38KBTU/HR 14.0SEER\" - Full load outlet air dry-bulb temperature < 2C. This indicates the possibility of coil frost/freeze. Outlet temperature = 1.87 C.\n   **   ~~~   **  ...Occurrence info = RUN PERIOD 1, 01/31 07:04 - 07:06\n   **   ~~~   ** ... Possible reasons for low outlet air dry-bulb temperatures are: This DX coil\n   **   ~~~   **    1) may have a low inlet air dry-bulb temperature. Inlet air temperature = 14.930 C.\n   **   ~~~   **    2) may have a low air flow rate per watt of cooling capacity. Check inputs.\n   **   ~~~   **    3) is used as part of a HX assisted cooling coil which uses a high sensible effectiveness. Check inputs.\n   ** Warning ** CalcDoe2DXCoil: Coil:Cooling:DX:SingleSpeed \"ZONE CORE SPACE - STORY MID PSZ-AC 1SPD DX AC CLG COIL 129KBTU/HR 11.0EER\" - Air-cooled condenser inlet dry-bulb temperature below 0 C. Outdoor dry-bulb temperature = -3.73\n   **   ~~~   **  ... Occurrence info = RUN PERIOD 1, 02/02 15:30 - 15:45\n   **   ~~~   ** ... Operation at low ambient temperatures may require special performance curves.\n   ** Warning ** CalcDoe2DXCoil: Coil:Cooling:DX:SingleSpeed \"ZONE CORE SPACE - STORY TOP PSZ-AC 1SPD DX AC CLG COIL 143KBTU/HR 10.8EER\" - Air-cooled condenser inlet dry-bulb temperature below 0 C. Outdoor dry-bulb temperature = -3.30\n   **   ~~~   **  ... Occurrence info = RUN PERIOD 1, 02/07 16:45 - 17:00\n   **   ~~~   ** ... Operation at low ambient temperatures may require special performance curves.\n   ** Warning ** CalcDoe2DXCoil: Coil:Cooling:DX:SingleSpeed \"ZONE CORE SPACE - STORY GROUND PSZ-AC 1SPD DX AC CLG COIL 89KBTU/HR 11.0EER\" - Air-cooled condenser inlet dry-bulb temperature below 0 C. Outdoor dry-bulb temperature = -2.20\n   **   ~~~   **  ... Occurrence info = RUN PERIOD 1, 02/09 16:45 - 17:00\n   **   ~~~   ** ... Operation at low ambient temperatures may require special performance curves.\n   ** Warning ** CalcDoe2DXCoil: Coil:Cooling:DX:SingleSpeed \"ZONE SOUTH PERIMETER SPACE - STORY TOP PSZ-AC 1SPD DX AC CLG COIL 109KBTU/HR 11.0EER\" - Full load outlet air dry-bulb temperature < 2C. This indicates the possibility of coil frost/freeze. Outlet temperature = -0.76 C.\n   **   ~~~   **  ...Occurrence info = RUN PERIOD 1, 04/17 11:30 - 11:35\n   **   ~~~   ** ... Possible reasons for low outlet air dry-bulb temperatures are: This DX coil\n   **   ~~~   **    1) may have a low inlet air dry-bulb temperature. Inlet air temperature = 12.250 C.\n   **   ~~~   **    2) may have a low air flow rate per watt of cooling capacity. Check inputs.\n   **   ~~~   **    3) is used as part of a HX assisted cooling coil which uses a high sensible effectiveness. Check inputs.\n   ** Warning ** CalcDoe2DXCoil: Coil:Cooling:DX:SingleSpeed \"ZONE WEST PERIMETER SPACE - STORY TOP PSZ-AC 1SPD DX AC CLG COIL 72KBTU/HR 11.0EER\" - Full load outlet air dry-bulb temperature < 2C. This indicates the possibility of coil frost/freeze. Outlet temperature = 1.39 C.\n   **   ~~~   **  ...Occurrence info = RUN PERIOD 1, 04/17 17:15 - 17:18\n   **   ~~~   ** ... Possible reasons for low outlet air dry-bulb temperatures are: This DX coil\n   **   ~~~   **    1) may have a low inlet air dry-bulb temperature. Inlet air temperature = 14.400 C.\n   **   ~~~   **    2) may have a low air flow rate per watt of cooling capacity. Check inputs.\n   **   ~~~   **    3) is used as part of a HX assisted cooling coil which uses a high sensible effectiveness. Check inputs.\n   ** Warning ** CalcDoe2DXCoil: Coil:Cooling:DX:SingleSpeed \"ZONE WEST PERIMETER SPACE - STORY MID PSZ-AC 1SPD DX AC CLG COIL 61KBTU/HR 14.0SEER\" - Full load outlet air dry-bulb temperature < 2C. This indicates the possibility of coil frost/freeze. Outlet temperature = 0.44 C.\n   **   ~~~   **  ...Occurrence info = RUN PERIOD 1, 04/20 15:30 - 15:38\n   **   ~~~   ** ... Possible reasons for low outlet air dry-bulb temperatures are: This DX coil\n   **   ~~~   **    1) may have a low inlet air dry-bulb temperature. Inlet air temperature = 13.450 C.\n   **   ~~~   **    2) may have a low air flow rate per watt of cooling capacity. Check inputs.\n   **   ~~~   **    3) is used as part of a HX assisted cooling coil which uses a high sensible effectiveness. Check inputs.\n   ** Warning ** CalcDoe2DXCoil: Coil:Cooling:DX:SingleSpeed \"ZONE SOUTH PERIMETER SPACE - STORY MID PSZ-AC 1SPD DX AC CLG COIL 93KBTU/HR 11.0EER\" - Full load outlet air dry-bulb temperature < 2C. This indicates the possibility of coil frost/freeze. Outlet temperature = -0.36 C.\n   **   ~~~   **  ...Occurrence info = RUN PERIOD 1, 04/20 17:10 - 17:12\n   **   ~~~   ** ... Possible reasons for low outlet air dry-bulb temperatures are: This DX coil\n   **   ~~~   **    1) may have a low inlet air dry-bulb temperature. Inlet air temperature = 12.650 C.\n   **   ~~~   **    2) may have a low air flow rate per watt of cooling capacity. Check inputs.\n   **   ~~~   **    3) is used as part of a HX assisted cooling coil which uses a high sensible effectiveness. Check inputs.\n   ** Warning ** CalcDoe2DXCoil: Coil:Cooling:DX:SingleSpeed \"ZONE SOUTH PERIMETER SPACE - STORY GROUND PSZ-AC 1SPD DX AC CLG COIL 78KBTU/HR 11.0EER\" - Full load outlet air dry-bulb temperature < 2C. This indicates the possibility of coil frost/freeze. Outlet temperature = -0.66 C.\n   **   ~~~   **  ...Occurrence info = RUN PERIOD 1, 04/20 17:44 - 17:45\n   **   ~~~   ** ... Possible reasons for low outlet air dry-bulb temperatures are: This DX coil\n   **   ~~~   **    1) may have a low inlet air dry-bulb temperature. Inlet air temperature = 12.350 C.\n   **   ~~~   **    2) may have a low air flow rate per watt of cooling capacity. Check inputs.\n   **   ~~~   **    3) is used as part of a HX assisted cooling coil which uses a high sensible effectiveness. Check inputs.\n   ** Warning ** CalcDoe2DXCoil: Coil:Cooling:DX:SingleSpeed \"ZONE CORE SPACE - STORY MID PSZ-AC 1SPD DX AC CLG COIL 129KBTU/HR 11.0EER\" - Full load outlet air dry-bulb temperature < 2C. This indicates the possibility of coil frost/freeze. Outlet temperature = -0.81 C.\n   **   ~~~   **  ...Occurrence info = RUN PERIOD 1, 04/20 17:53 - 17:54\n   **   ~~~   ** ... Possible reasons for low outlet air dry-bulb temperatures are: This DX coil\n   **   ~~~   **    1) may have a low inlet air dry-bulb temperature. Inlet air temperature = 12.200 C.\n   **   ~~~   **    2) may have a low air flow rate per watt of cooling capacity. Check inputs.\n   **   ~~~   **    3) is used as part of a HX assisted cooling coil which uses a high sensible effectiveness. Check inputs.\n   ** Warning ** CalcDoe2DXCoil: Coil:Cooling:DX:SingleSpeed \"ZONE EAST PERIMETER SPACE - STORY MID PSZ-AC 1SPD DX AC CLG COIL 62KBTU/HR 14.0SEER\" - Full load outlet air dry-bulb temperature < 2C. This indicates the possibility of coil frost/freeze. Outlet temperature = 1.38 C.\n   **   ~~~   **  ...Occurrence info = RUN PERIOD 1, 04/21 17:13 - 17:15\n   **   ~~~   ** ... Possible reasons for low outlet air dry-bulb temperatures are: This DX coil\n   **   ~~~   **    1) may have a low inlet air dry-bulb temperature. Inlet air temperature = 14.400 C.\n   **   ~~~   **    2) may have a low air flow rate per watt of cooling capacity. Check inputs.\n   **   ~~~   **    3) is used as part of a HX assisted cooling coil which uses a high sensible effectiveness. Check inputs.\n   ** Warning ** CalcDoe2DXCoil: Coil:Cooling:DX:SingleSpeed \"ZONE EAST PERIMETER SPACE - STORY TOP PSZ-AC 1SPD DX AC CLG COIL 71KBTU/HR 11.0EER\" - Full load outlet air dry-bulb temperature < 2C. This indicates the possibility of coil frost/freeze. Outlet temperature = 7.26E-002 C.\n   **   ~~~   **  ...Occurrence info = RUN PERIOD 1, 04/22 11:03 - 11:05\n   **   ~~~   ** ... Possible reasons for low outlet air dry-bulb temperatures are: This DX coil\n   **   ~~~   **    1) may have a low inlet air dry-bulb temperature. Inlet air temperature = 13.075 C.\n   **   ~~~   **    2) may have a low air flow rate per watt of cooling capacity. Check inputs.\n   **   ~~~   **    3) is used as part of a HX assisted cooling coil which uses a high sensible effectiveness. Check inputs.\n   ** Warning ** CalcDoe2DXCoil: Coil:Cooling:DX:SingleSpeed \"ZONE CORE SPACE - STORY TOP PSZ-AC 1SPD DX AC CLG COIL 143KBTU/HR 10.8EER\" - Full load outlet air dry-bulb temperature < 2C. This indicates the possibility of coil frost/freeze. Outlet temperature = 7.26E-002 C.\n   **   ~~~   **  ...Occurrence info = RUN PERIOD 1, 04/22 11:09 - 11:10\n   **   ~~~   ** ... Possible reasons for low outlet air dry-bulb temperatures are: This DX coil\n   **   ~~~   **    1) may have a low inlet air dry-bulb temperature. Inlet air temperature = 13.075 C.\n   **   ~~~   **    2) may have a low air flow rate per watt of cooling capacity. Check inputs.\n   **   ~~~   **    3) is used as part of a HX assisted cooling coil which uses a high sensible effectiveness. Check inputs.\n   ** Warning ** CalcDoe2DXCoil: Coil:Cooling:DX:SingleSpeed \"ZONE CORE SPACE - STORY GROUND PSZ-AC 1SPD DX AC CLG COIL 89KBTU/HR 11.0EER\" - Full load outlet air dry-bulb temperature < 2C. This indicates the possibility of coil frost/freeze. Outlet temperature = 1.44 C.\n   **   ~~~   **  ...Occurrence info = RUN PERIOD 1, 05/09 19:30 - 19:34\n   **   ~~~   ** ... Possible reasons for low outlet air dry-bulb temperatures are: This DX coil\n   **   ~~~   **    1) may have a low inlet air dry-bulb temperature. Inlet air temperature = 14.450 C.\n   **   ~~~   **    2) may have a low air flow rate per watt of cooling capacity. Check inputs.\n   **   ~~~   **    3) is used as part of a HX assisted cooling coil which uses a high sensible effectiveness. Check inputs.\n   ** Warning ** The resource referenced by LifeCycleCost:UsePriceEscalation= \"U.S. AVG  COMMERCIAL-ELECTRICITY\" has no energy cost. \n   **   ~~~   ** ... It is likely that the wrong resource is used. The resource should match the meter used in Utility:Tariff.\n   ** Warning ** The resource referenced by LifeCycleCost:UsePriceEscalation= \"U.S. AVG  COMMERCIAL-DISTILLATE OIL\" has no energy cost. \n   **   ~~~   ** ... It is likely that the wrong resource is used. The resource should match the meter used in Utility:Tariff.\n   ** Warning ** The resource referenced by LifeCycleCost:UsePriceEscalation= \"U.S. AVG  COMMERCIAL-RESIDUAL OIL\" has no energy cost. \n   **   ~~~   ** ... It is likely that the wrong resource is used. The resource should match the meter used in Utility:Tariff.\n   ** Warning ** The resource referenced by LifeCycleCost:UsePriceEscalation= \"U.S. AVG  COMMERCIAL-NATURAL GAS\" has no energy cost. \n   **   ~~~   ** ... It is likely that the wrong resource is used. The resource should match the meter used in Utility:Tariff.\n   ** Warning ** The resource referenced by LifeCycleCost:UsePriceEscalation= \"U.S. AVG  COMMERCIAL-COAL\" has no energy cost. \n   **   ~~~   ** ... It is likely that the wrong resource is used. The resource should match the meter used in Utility:Tariff.\n   ************* Simulation Error Summary *************\n   ************* There are 6 unused schedules in input.\n   ************* There are 6 unused week schedules in input.\n   ************* There are 13 unused day schedules in input.\n   ************* Use Output:Diagnostics,DisplayUnusedSchedules; to see them.\n   *************\n   ************* ===== Recurring Error Summary =====\n   ************* The following recurring error messages occurred.\n   *************\n   *************  ** Warning ** CalcDoe2DXCoil: Coil:Cooling:DX:SingleSpeed=\"ZONE NORTH PERIMETER SPACE - STORY MID PSZ-AC 1SPD DX AC CLG COIL 38KBTU/HR 14.0SEER\" - Low condenser dry-bulb temperature error continues...\n   *************  **   ~~~   **   This error occurred 2067 total times;\n   *************  **   ~~~   **   during Warmup 0 times;\n   *************  **   ~~~   **   during Sizing 0 times.\n   *************  **   ~~~   **   Max=-2.500000E-002 [C]  Min=-24.85 [C]\n   *************\n   *************  ** Warning ** CalcDoe2DXCoil: Coil:Cooling:DX:SingleSpeed=\"ZONE NORTH PERIMETER SPACE - STORY TOP PSZ-AC 1SPD DX AC CLG COIL 42KBTU/HR 14.0SEER\" - Low condenser dry-bulb temperature error continues...\n   *************  **   ~~~   **   This error occurred 2208 total times;\n   *************  **   ~~~   **   during Warmup 0 times;\n   *************  **   ~~~   **   during Sizing 0 times.\n   *************  **   ~~~   **   Max=-2.500000E-002 [C]  Min=-24.85 [C]\n   *************\n   *************  ** Warning ** CalcDoe2DXCoil: Coil:Cooling:DX:SingleSpeed=\"ZONE EAST PERIMETER SPACE - STORY GROUND PSZ-AC 1SPD DX AC CLG COIL 52KBTU/HR 14.0SEER\" - Low condenser dry-bulb temperature error continues...\n   *************  **   ~~~   **   This error occurred 2279 total times;\n   *************  **   ~~~   **   during Warmup 0 times;\n   *************  **   ~~~   **   during Sizing 0 times.\n   *************  **   ~~~   **   Max=-2.500000E-002 [C]  Min=-24.85 [C]\n   *************\n   *************  ** Warning ** CalcDoe2DXCoil: Coil:Cooling:DX:SingleSpeed=\"ZONE NORTH PERIMETER SPACE - STORY GROUND PSZ-AC 1SPD DX AC CLG COIL 29KBTU/HR 14.0SEER\" - Low condenser dry-bulb temperature error continues...\n   *************  **   ~~~   **   This error occurred 1583 total times;\n   *************  **   ~~~   **   during Warmup 0 times;\n   *************  **   ~~~   **   during Sizing 0 times.\n   *************  **   ~~~   **   Max=-2.500000E-002 [C]  Min=-24.85 [C]\n   *************\n   *************  ** Warning ** CalcDoe2DXCoil: Coil:Cooling:DX:SingleSpeed=\"ZONE WEST PERIMETER SPACE - STORY GROUND PSZ-AC 1SPD DX AC CLG COIL 52KBTU/HR 14.0SEER\" - Low condenser dry-bulb temperature error continues...\n   *************  **   ~~~   **   This error occurred 1844 total times;\n   *************  **   ~~~   **   during Warmup 0 times;\n   *************  **   ~~~   **   during Sizing 0 times.\n   *************  **   ~~~   **   Max=-0.175 [C]  Min=-24.85 [C]\n   *************\n   *************  ** Warning ** HeatExchanger:AirToAir:SensibleAndLatent \"ZONE CORE SPACE - STORY TOP PSZ-AC ERV\":  Average air volume flow rate is <50% or >130% warning continues. Air flow rate ratio statistics follow.\n   *************  **   ~~~   **   This error occurred 43895 total times;\n   *************  **   ~~~   **   during Warmup 0 times;\n   *************  **   ~~~   **   during Sizing 0 times.\n   *************  **   ~~~   **   Max=6.418481  Min=2.012413E-003\n   *************\n   *************  ** Warning ** HeatExchanger:AirToAir:SensibleAndLatent \"ZONE CORE SPACE - STORY MID PSZ-AC ERV\":  Average air volume flow rate is <50% or >130% warning continues. Air flow rate ratio statistics follow.\n   *************  **   ~~~   **   This error occurred 40679 total times;\n   *************  **   ~~~   **   during Warmup 0 times;\n   *************  **   ~~~   **   during Sizing 0 times.\n   *************  **   ~~~   **   Max=5.726348  Min=2.219680E-003\n   *************\n   *************  ** Warning ** HeatExchanger:AirToAir:SensibleAndLatent \"ZONE CORE SPACE - STORY GROUND PSZ-AC ERV\":  Average air volume flow rate is <50% or >130% warning continues. Air flow rate ratio statistics follow.\n   *************  **   ~~~   **   This error occurred 39251 total times;\n   *************  **   ~~~   **   during Warmup 0 times;\n   *************  **   ~~~   **   during Sizing 0 times.\n   *************  **   ~~~   **   Max=4.019518  Min=2.178795E-003\n   *************\n   *************  ** Warning ** CalcDoe2DXCoil: Coil:Cooling:DX:SingleSpeed=\"ZONE NORTH PERIMETER SPACE - STORY MID PSZ-AC 1SPD DX AC CLG COIL 38KBTU/HR 14.0SEER\" - Full load outlet temperature indicates a possibility of frost/freeze error continues. Outlet air temperature statistics follow:\n   *************  **   ~~~   **   This error occurred 1 total times;\n   *************  **   ~~~   **   during Warmup 0 times;\n   *************  **   ~~~   **   during Sizing 0 times.\n   *************  **   ~~~   **   Max=1.869323  Min=1.869323\n   *************\n   *************  ** Warning ** CalcDoe2DXCoil: Coil:Cooling:DX:SingleSpeed=\"ZONE CORE SPACE - STORY MID PSZ-AC 1SPD DX AC CLG COIL 129KBTU/HR 11.0EER\" - Low condenser dry-bulb temperature error continues...\n   *************  **   ~~~   **   This error occurred 24 total times;\n   *************  **   ~~~   **   during Warmup 0 times;\n   *************  **   ~~~   **   during Sizing 0 times.\n   *************  **   ~~~   **   Max=-0.85 [C]  Min=-9.45 [C]\n   *************\n   *************  ** Warning ** CalcDoe2DXCoil: Coil:Cooling:DX:SingleSpeed=\"ZONE CORE SPACE - STORY TOP PSZ-AC 1SPD DX AC CLG COIL 143KBTU/HR 10.8EER\" - Low condenser dry-bulb temperature error continues...\n   *************  **   ~~~   **   This error occurred 26 total times;\n   *************  **   ~~~   **   during Warmup 0 times;\n   *************  **   ~~~   **   during Sizing 0 times.\n   *************  **   ~~~   **   Max=-0.3 [C]  Min=-6.15 [C]\n   *************\n   *************  ** Warning ** CalcDoe2DXCoil: Coil:Cooling:DX:SingleSpeed=\"ZONE CORE SPACE - STORY GROUND PSZ-AC 1SPD DX AC CLG COIL 89KBTU/HR 11.0EER\" - Low condenser dry-bulb temperature error continues...\n   *************  **   ~~~   **   This error occurred 19 total times;\n   *************  **   ~~~   **   during Warmup 0 times;\n   *************  **   ~~~   **   during Sizing 0 times.\n   *************  **   ~~~   **   Max=-0.3 [C]  Min=-5.3 [C]\n   *************\n   *************  ** Warning ** CalcDoe2DXCoil: Coil:Cooling:DX:SingleSpeed=\"ZONE SOUTH PERIMETER SPACE - STORY TOP PSZ-AC 1SPD DX AC CLG COIL 109KBTU/HR 11.0EER\" - Full load outlet temperature indicates a possibility of frost/freeze error continues. Outlet air temperature statistics follow:\n   *************  **   ~~~   **   This error occurred 197 total times;\n   *************  **   ~~~   **   during Warmup 0 times;\n   *************  **   ~~~   **   during Sizing 0 times.\n   *************  **   ~~~   **   Max=1.997151  Min=-0.943526\n   *************\n   *************  ** Warning ** CalcDoe2DXCoil: Coil:Cooling:DX:SingleSpeed=\"ZONE WEST PERIMETER SPACE - STORY TOP PSZ-AC 1SPD DX AC CLG COIL 72KBTU/HR 11.0EER\" - Full load outlet temperature indicates a possibility of frost/freeze error continues. Outlet air temperature statistics follow:\n   *************  **   ~~~   **   This error occurred 198 total times;\n   *************  **   ~~~   **   during Warmup 0 times;\n   *************  **   ~~~   **   during Sizing 0 times.\n   *************  **   ~~~   **   Max=1.99789  Min=-0.811392\n   *************\n   *************  ** Warning ** CalcDoe2DXCoil: Coil:Cooling:DX:SingleSpeed=\"ZONE WEST PERIMETER SPACE - STORY MID PSZ-AC 1SPD DX AC CLG COIL 61KBTU/HR 14.0SEER\" - Full load outlet temperature indicates a possibility of frost/freeze error continues. Outlet air temperature statistics follow:\n   *************  **   ~~~   **   This error occurred 183 total times;\n   *************  **   ~~~   **   during Warmup 0 times;\n   *************  **   ~~~   **   during Sizing 0 times.\n   *************  **   ~~~   **   Max=1.99761  Min=-0.811392\n   *************\n   *************  ** Warning ** CalcDoe2DXCoil: Coil:Cooling:DX:SingleSpeed=\"ZONE SOUTH PERIMETER SPACE - STORY MID PSZ-AC 1SPD DX AC CLG COIL 93KBTU/HR 11.0EER\" - Full load outlet temperature indicates a possibility of frost/freeze error continues. Outlet air temperature statistics follow:\n   *************  **   ~~~   **   This error occurred 103 total times;\n   *************  **   ~~~   **   during Warmup 0 times;\n   *************  **   ~~~   **   during Sizing 0 times.\n   *************  **   ~~~   **   Max=1.996958  Min=-0.811392\n   *************\n   *************  ** Warning ** CalcDoe2DXCoil: Coil:Cooling:DX:SingleSpeed=\"ZONE SOUTH PERIMETER SPACE - STORY GROUND PSZ-AC 1SPD DX AC CLG COIL 78KBTU/HR 11.0EER\" - Full load outlet temperature indicates a possibility of frost/freeze error continues. Outlet air temperature statistics follow:\n   *************  **   ~~~   **   This error occurred 79 total times;\n   *************  **   ~~~   **   during Warmup 0 times;\n   *************  **   ~~~   **   during Sizing 0 times.\n   *************  **   ~~~   **   Max=1.994752  Min=-1.04265\n   *************\n   *************  ** Warning ** CalcDoe2DXCoil: Coil:Cooling:DX:SingleSpeed=\"ZONE CORE SPACE - STORY MID PSZ-AC 1SPD DX AC CLG COIL 129KBTU/HR 11.0EER\" - Full load outlet temperature indicates a possibility of frost/freeze error continues. Outlet air temperature statistics follow:\n   *************  **   ~~~   **   This error occurred 39 total times;\n   *************  **   ~~~   **   during Warmup 0 times;\n   *************  **   ~~~   **   during Sizing 0 times.\n   *************  **   ~~~   **   Max=1.997303  Min=-0.811392\n   *************\n   *************  ** Warning ** CalcDoe2DXCoil: Coil:Cooling:DX:SingleSpeed=\"ZONE EAST PERIMETER SPACE - STORY MID PSZ-AC 1SPD DX AC CLG COIL 62KBTU/HR 14.0SEER\" - Full load outlet temperature indicates a possibility of frost/freeze error continues. Outlet air temperature statistics follow:\n   *************  **   ~~~   **   This error occurred 20 total times;\n   *************  **   ~~~   **   during Warmup 0 times;\n   *************  **   ~~~   **   during Sizing 0 times.\n   *************  **   ~~~   **   Max=1.991477  Min=-0.813345\n   *************\n   *************  ** Warning ** CalcDoe2DXCoil: Coil:Cooling:DX:SingleSpeed=\"ZONE EAST PERIMETER SPACE - STORY TOP PSZ-AC 1SPD DX AC CLG COIL 71KBTU/HR 11.0EER\" - Full load outlet temperature indicates a possibility of frost/freeze error continues. Outlet air temperature statistics follow:\n   *************  **   ~~~   **   This error occurred 17 total times;\n   *************  **   ~~~   **   during Warmup 0 times;\n   *************  **   ~~~   **   during Sizing 0 times.\n   *************  **   ~~~   **   Max=1.991477  Min=-0.813345\n   *************\n   *************  ** Warning ** CalcDoe2DXCoil: Coil:Cooling:DX:SingleSpeed=\"ZONE CORE SPACE - STORY TOP PSZ-AC 1SPD DX AC CLG COIL 143KBTU/HR 10.8EER\" - Full load outlet temperature indicates a possibility of frost/freeze error continues. Outlet air temperature statistics follow:\n   *************  **   ~~~   **   This error occurred 26 total times;\n   *************  **   ~~~   **   during Warmup 0 times;\n   *************  **   ~~~   **   during Sizing 0 times.\n   *************  **   ~~~   **   Max=1.989754  Min=-0.628349\n   *************\n   *************  ** Warning ** CalcDoe2DXCoil: Coil:Cooling:DX:SingleSpeed=\"ZONE CORE SPACE - STORY GROUND PSZ-AC 1SPD DX AC CLG COIL 89KBTU/HR 11.0EER\" - Full load outlet temperature indicates a possibility of frost/freeze error continues. Outlet air temperature statistics follow:\n   *************  **   ~~~   **   This error occurred 23 total times;\n   *************  **   ~~~   **   during Warmup 0 times;\n   *************  **   ~~~   **   during Sizing 0 times.\n   *************  **   ~~~   **   Max=1.997303  Min=-0.456557\n   *************\n   *************\n   ************* ===== Final Error Summary =====\n   ************* The following error categories occurred.  Consider correcting or noting.\n   ************* Nominally Unused Constructions\n   ************* ..The nominally unused constructions warning is provided to alert you to potential conditions that can cause\n   ************* ..extra time during simulation. Each construction is calculated by the algorithm indicated in the HeatBalanceAlgorithm\n   ************* ..object. You may remove the constructions indicated (when you use the DisplayExtraWarnings option).\n   *************\n   ************* EnergyPlus Warmup Error Summary. During Warmup: 0 Warning; 0 Severe Errors.\n   ************* EnergyPlus Sizing Error Summary. During Sizing: 41 Warning; 0 Severe Errors.\n   ************* EnergyPlus Completed Successfully-- 134834 Warning; 0 Severe Errors; Elapsed Time=00hr 02min 25.50sec\n",
  "file_format_version": "0.0.1",
  "file_paths": [
    "/mnt/openstudio/analysis_1fa4e9a5-af37-4a2f-98d1-9ebb999eef5c/data_point_038adaa5-f9e0-4f6d-a350-5180f7f85016/generated_files",
    "../weather",
    "../seeds",
    "../seed",
    "./files",
    "./weather",
    "../../files",
    "../../weather",
    "./"
  ],
  "hash": "C4881212",
  "measure_paths": [
    "../measures"
  ],
  "name": "DOE Autogenerated 90",
  "osa_id": "1fa4e9a5-af37-4a2f-98d1-9ebb999eef5c",
  "osd_id": "038adaa5-f9e0-4f6d-a350-5180f7f85016",
  "run_directory": "./run",
  "seed_file": "switchglaze.osm",
  "started_at": "20200630T212833Z",
  "steps": [
    {
      "arguments": {
        "bar_division_method": "Single Space Type - Core and Perimeter",
        "bldg_type_a": "MediumOffice",
        "bldg_type_a_num_units": 1,
        "bldg_type_b": "SmallOffice",
        "bldg_type_b_fract_bldg_area": 0,
        "bldg_type_b_num_units": 1,
        "bldg_type_c": "SmallOffice",
        "bldg_type_c_fract_bldg_area": 0,
        "bldg_type_c_num_units": 1,
        "bldg_type_d": "SmallOffice",
        "bldg_type_d_fract_bldg_area": 0,
        "bldg_type_d_num_units": 1,
        "bottom_story_ground_exposed_floor": true,
        "building_rotation": 0,
        "floor_height": 0,
        "make_mid_story_surfaces_adiabatic": false,
        "ns_to_ew_ratio": 0,
        "num_stories_above_grade": 3,
        "num_stories_below_grade": 0,
        "party_wall_fraction": 0,
        "party_wall_stories_east": 0,
        "party_wall_stories_north": 0,
        "party_wall_stories_south": 0,
        "party_wall_stories_west": 0,
        "single_floor_area": 0,
        "story_multiplier": "Basements Ground Mid Top",
        "template": "90.1-2013",
        "top_story_exterior_exposed_roof": true,
        "total_bldg_floor_area": 53633,
        "use_upstream_args": false,
        "wwr": 0.4
      },
      "description": "Create a core and perimeter bar sliced by space type.",
      "measure_dir_name": "create_bar_from_building_type_ratios",
      "name": "create_bar_from_building_type_ratios",
      "result": {
        "completed_at": "20200630T212851Z",
        "measure_class_name": "CreateBarFromBuildingTypeRatios",
        "measure_display_name": "Create Bar From Building Type Ratios",
        "measure_name": "create_bar_from_building_type_ratios",
        "measure_taxonomy": "Envelope.Form",
        "measure_type": "ModelMeasure",
        "measure_uid": "6e3a14f8-c3c7-4e03-bc51-bef8a52e1a05",
        "measure_version_id": "2424b90a-9e47-41c2-a701-59473c167219",
        "measure_version_modified": "20191016T185548Z",
        "measure_xml_checksum": "2AF3A68E",
        "started_at": "20200630T212846Z",
        "stderr": "",
[...]
        "step_errors": [],
        "step_files": [],
        "step_info": [
          "Sql file not empty",
          "Generator produced DC electric energy (GJ): 42.02 (11671.31 kWh)",
          "Generator produced DC electric energy (GJ) in JAN: 0.12 GJ",
          "Generator produced DC electric energy (GJ) in FEB: 0.39 GJ",
          "Generator produced DC electric energy (GJ) in MAR: 0.89 GJ",
          "Generator produced DC electric energy (GJ) in APR: 3.02 GJ",
          "Generator produced DC electric energy (GJ) in MAY: 6.92 GJ",
          "Generator produced DC electric energy (GJ) in JUN: 8.54 GJ",
          "Generator produced DC electric energy (GJ) in JUL: 11.53 GJ",
          "Generator produced DC electric energy (GJ) in AUG: 8.39 GJ",
          "Generator produced DC electric energy (GJ) in SEP: 1.55 GJ",
          "Generator produced DC electric energy (GJ) in OCT: 0.45 GJ",
          "Generator produced DC electric energy (GJ) in NOV: 0.19 GJ",
          "Generator produced DC electric energy (GJ) in DEC: 0.03 GJ",
          "Lighting energy (GJ): 349.33 (97037.08 kWh)",
          "Lighting energy (GJ) in JAN: 32.87 GJ",
          "Lighting energy (GJ) in FEB: 27.77 GJ",
          "Lighting energy (GJ) in MAR: 29.65 GJ",
          "Lighting energy (GJ) in APR: 25.79 GJ",
          "Lighting energy (GJ) in MAY: 28.61 GJ",
          "Lighting energy (GJ) in JUN: 27.44 GJ",
          "Lighting energy (GJ) in JUL: 26.89 GJ",
          "Lighting energy (GJ) in AUG: 28.85 GJ",
          "Lighting energy (GJ) in SEP: 27.28 GJ",
          "Lighting energy (GJ) in OCT: 29.65 GJ",
          "Lighting energy (GJ) in NOV: 31.78 GJ",
          "Lighting energy (GJ) in DEC: 32.77 GJ",
          "Building electricity (GJ) in JAN: 124.05 GJ",
          "Building electricity (GJ) in FEB: 106.12 GJ",
          "Building electricity (GJ) in MAR: 111.89 GJ",
          "Building electricity (GJ) in APR: 97.85 GJ",
          "Building electricity (GJ) in MAY: 107.71 GJ",
          "Building electricity (GJ) in JUN: 114.17 GJ",
          "Building electricity (GJ) in JUL: 118.79 GJ",
          "Building electricity (GJ) in AUG: 116.18 GJ",
          "Building electricity (GJ) in SEP: 101.86 GJ",
          "Building electricity (GJ) in OCT: 111.25 GJ",
          "Building electricity (GJ) in NOV: 118.71 GJ",
          "Building electricity (GJ) in DEC: 124.08 GJ",
          "Building gas (GJ) in JAN: 145.45 GJ",
          "Building gas (GJ) in FEB: 99.52 GJ",
          "Building gas (GJ) in MAR: 73.77 GJ",
          "Building gas (GJ) in APR: 22.94 GJ",
          "Building gas (GJ) in MAY: 10.7 GJ",
          "Building gas (GJ) in JUN: 9.72 GJ",
          "Building gas (GJ) in JUL: 9.43 GJ",
          "Building gas (GJ) in AUG: 9.76 GJ",
          "Building gas (GJ) in SEP: 10.98 GJ",
          "Building gas (GJ) in OCT: 51.22 GJ",
          "Building gas (GJ) in NOV: 122.89 GJ",
          "Building gas (GJ) in DEC: 149.83 GJ",
          "Total Electricity for Building: 1352.67 GJ",
          "Total Gas for Building: 716.21 GJ"
        ],
        "step_result": "Success",
        "step_values": [
          {
            "name": "total_pv",
            "units": "GJ",
            "value": 42.016681
          },
          {
            "name": "panel_dc_gen_jan",
            "units": "GJ",
            "value": 0.12
          },
          {
            "name": "panel_dc_gen_feb",
            "units": "GJ",
            "value": 0.39
          },
          {
            "name": "panel_dc_gen_mar",
            "units": "GJ",
            "value": 0.89
          },
          {
            "name": "panel_dc_gen_apr",
            "units": "GJ",
            "value": 3.02
          },
          {
            "name": "panel_dc_gen_may",
            "units": "GJ",
            "value": 6.92
          },
          {
            "name": "panel_dc_gen_jun",
            "units": "GJ",
            "value": 8.54
          },
          {
            "name": "panel_dc_gen_jul",
            "units": "GJ",
            "value": 11.53
          },
          {
            "name": "panel_dc_gen_aug",
            "units": "GJ",
            "value": 8.39
          },
          {
            "name": "panel_dc_gen_sep",
            "units": "GJ",
            "value": 1.55
          },
          {
            "name": "panel_dc_gen_oct",
            "units": "GJ",
            "value": 0.45
          },
          {
            "name": "panel_dc_gen_nov",
            "units": "GJ",
            "value": 0.19
          },
          {
            "name": "panel_dc_gen_dec",
            "units": "GJ",
            "value": 0.03
          },
          {
            "name": "light_energy",
            "units": "GJ",
            "value": 349.333206
          },
          {
            "name": "light_energy_jan",
            "units": "GJ",
            "value": 32.87
          },
          {
            "name": "light_energy_feb",
            "units": "GJ",
            "value": 27.77
          },
          {
            "name": "light_energy_mar",
            "units": "GJ",
            "value": 29.65
          },
          {
            "name": "light_energy_apr",
            "units": "GJ",
            "value": 25.79
          },
          {
            "name": "light_energy_may",
            "units": "GJ",
            "value": 28.61
          },
          {
            "name": "light_energy_jun",
            "units": "GJ",
            "value": 27.44
          },
          {
            "name": "light_energy_jul",
            "units": "GJ",
            "value": 26.89
          },
          {
            "name": "light_energy_aug",
            "units": "GJ",
            "value": 28.85
          },
          {
            "name": "light_energy_sep",
            "units": "GJ",
            "value": 27.28
          },
          {
            "name": "light_energy_oct",
            "units": "GJ",
            "value": 29.65
          },
          {
            "name": "light_energy_nov",
            "units": "GJ",
            "value": 31.78
          },
          {
            "name": "light_energy_dec",
            "units": "GJ",
            "value": 32.77
          },
          {
            "name": "building_elec_jan",
            "units": "GJ",
            "value": 124.05
          },
          {
            "name": "building_elec_feb",
            "units": "GJ",
            "value": 106.12
          },
          {
            "name": "building_elec_mar",
            "units": "GJ",
            "value": 111.89
          },
          {
            "name": "building_elec_apr",
            "units": "GJ",
            "value": 97.85
          },
          {
            "name": "building_elec_may",
            "units": "GJ",
            "value": 107.71
          },
          {
            "name": "building_elec_jun",
            "units": "GJ",
            "value": 114.17
          },
          {
            "name": "building_elec_jul",
            "units": "GJ",
            "value": 118.79
          },
          {
            "name": "building_elec_aug",
            "units": "GJ",
            "value": 116.18
          },
          {
            "name": "building_elec_sep",
            "units": "GJ",
            "value": 101.86
          },
          {
            "name": "building_elec_oct",
            "units": "GJ",
            "value": 111.25
          },
          {
            "name": "building_elec_nov",
            "units": "GJ",
            "value": 118.71
          },
          {
            "name": "building_elec_dec",
            "units": "GJ",
            "value": 124.08
          },
          {
            "name": "building_gas_jan",
            "units": "GJ",
            "value": 145.45
          },
          {
            "name": "building_gas_feb",
            "units": "GJ",
            "value": 99.52
          },
          {
            "name": "building_gas_mar",
            "units": "GJ",
            "value": 73.77
          },
          {
            "name": "building_gas_apr",
            "units": "GJ",
            "value": 22.94
          },
          {
            "name": "building_gas_may",
            "units": "GJ",
            "value": 10.7
          },
          {
            "name": "building_gas_jun",
            "units": "GJ",
            "value": 9.72
          },
          {
            "name": "building_gas_jul",
            "units": "GJ",
            "value": 9.43
          },
          {
            "name": "building_gas_aug",
            "units": "GJ",
            "value": 9.76
          },
          {
            "name": "building_gas_sep",
            "units": "GJ",
            "value": 10.98
          },
          {
            "name": "building_gas_oct",
            "units": "GJ",
            "value": 51.22
          },
          {
            "name": "building_gas_nov",
            "units": "GJ",
            "value": 122.89
          },
          {
            "name": "building_gas_dec",
            "units": "GJ",
            "value": 149.83
          },
          {
            "name": "building_area_ft",
            "units": "ft^2",
            "value": 53633
          },
          {
            "name": "capacity_factor",
            "units": "%",
            "value": 0.047966
          },
          {
            "name": "total_electricity",
            "units": "GJ",
            "value": 1352.670044
          },
          {
            "name": "total_electricity_heating",
            "units": "GJ",
            "value": 0.01
          },
          {
            "name": "total_electricity_cooling",
            "units": "GJ",
            "value": 45.529999
          },
          {
            "name": "total_electricity_lighting",
            "units": "GJ",
            "value": 349.329987
          },
          {
            "name": "total_gas",
            "units": "GJ",
            "value": 716.210022
          },
          {
            "name": "total_gas_heating",
            "units": "GJ",
            "value": 600.390015
          }
        ],
        "step_warnings": []
      }
    },
    {
      "arguments": {
        "Sizing Run Directories": true,
        "audit": true,
        "bnd": true,
        "csv": true,
        "eio": true,
        "eso": true,
        "idf": false,
        "mdd": true,
        "osm": true,
        "rdd": true,
        "shd": true,
        "sql": true
      },
      "description": "Removes a significant portion of the saved results from each run, helping to alleviate memory problems.",
      "measure_dir_name": "ServerDirectoryCleanup",
      "name": "server_directory_cleanup",
      "result": {
        "completed_at": "20200630T213212Z",
        "measure_class_name": "ServerDirectoryCleanup",
        "measure_display_name": "Server Directory Cleanup",
        "measure_name": "server_directory_cleanup",
        "measure_taxonomy": "Calibration",
        "measure_type": "ReportingMeasure",
        "measure_uid": "ec7d04ad-0b7b-495b-825a-e1b6d28d1d3f",
        "measure_version_id": "636bd688-3bd1-439e-899f-507e09692c6e",
        "measure_version_modified": "20191223T153859Z",
        "measure_xml_checksum": "5F1EDF75",
        "started_at": "20200630T213212Z",
        "stderr": "",
        "stdout": "",
        "step_errors": [],
        "step_files": [],
        "step_final_condition": "The following files were in the local run directory following to the execution of this measure: eplusout.end, in.idf, eplusout.mtr, eplusout.mtd, 004_AddOutputVariable, 001_ChangeBuildingLocation, 008_AddOutputVariable, .., 006_AddOutputVariable, run.log, 012_a_inject_window_specific_idf_objects, sqlite.err, stdout-energyplus, 005_AddOutputVariable, 013_ServerDirectoryCleanup, 009_AddMeter, 013_WindowPV_reporting, pre-preprocess.idf, 002_create_typical_building_from_model, in.epw, 011_add_thermochromic_bipv, 010_AddMeter, measure_attributes.json, 000_create_bar_from_building_type_ratios, eplusout.err, 014_ServerDirectoryCleanup, 007_AddOutputVariable, stdout-expandobject, eplustbl.htm, 003_AddOutputVariable, started.job, ..",
        "step_info": [
          "Deleted ./../eplusout.sql from the run directory.",
          "Deleted ./../eplusout.eso from the run directory.",
          "Deleted ./../eplusout.audit from the run directory.",
          "Deleted ./../in.osm from the run directory.",
          "Deleted ./../eplusout.bnd from the run directory.",
          "Deleted ./../eplusout.eio from the run directory.",
          "Deleted ./../eplusout.shd from the run directory.",
          "Deleted ./../eplusout.mdd from the run directory.",
          "Deleted ./../eplusout.rdd from the run directory.",
          "Deleted ./../epluszsz.csv from the run directory.",
          "Deleted ./../eplusssz.csv from the run directory."
        ],
        "step_initial_condition": "The following files were in the local run directory prior to the execution of this measure: eplusout.end, in.idf, eplusout.mtr, eplusout.mtd, 004_AddOutputVariable, epluszsz.csv, 001_ChangeBuildingLocation, 008_AddOutputVariable, eplusout.mdd, .., 006_AddOutputVariable, run.log, 012_a_inject_window_specific_idf_objects, in.osm, sqlite.err, stdout-energyplus, 005_AddOutputVariable, 013_ServerDirectoryCleanup, 009_AddMeter, 013_WindowPV_reporting, eplusout.rdd, pre-preprocess.idf, 002_create_typical_building_from_model, in.epw, eplusout.shd, 011_add_thermochromic_bipv, 010_AddMeter, measure_attributes.json, 000_create_bar_from_building_type_ratios, eplusout.err, 014_ServerDirectoryCleanup, eplusout.eso, 007_AddOutputVariable, stdout-expandobject, eplusout.bnd, eplusout.sql, eplusout.eio, eplustbl.htm, 003_AddOutputVariable, eplusssz.csv, started.job, ., eplusout.audit.",
        "step_result": "Success",
        "step_values": [
          {
            "name": "sql",
            "value": true
          },
          {
            "name": "eso",
            "value": true
          },
          {
            "name": "audit",
            "value": true
          },
          {
            "name": "osm",
            "value": true
          },
          {
            "name": "idf",
            "value": false
          },
          {
            "name": "bnd",
            "value": true
          },
          {
            "name": "eio",
            "value": true
          },
          {
            "name": "shd",
            "value": true
          },
          {
            "name": "mdd",
            "value": true
          },
          {
            "name": "rdd",
            "value": true
          },
          {
            "name": "csv",
            "value": true
          },
          {
            "name": "Sizing Run Directories",
            "value": true
          }
        ],
        "step_warnings": []
      }
    }
  ],
  "updated_at": "20200630T213214Z",
  "weather_file": "DEU_Hamburg.101470_IWEC.epw"
}